 
 ****************************
 *** Specfem3D MPI Mesher ***
 ****************************
 
 
 There are          726  MPI processes
 Processes are numbered from 0 to          725
 
 There are          176  elements along xi in each chunk
 There are          176  elements along eta in each chunk
 
 There are           11  slices along xi in each chunk
 There are           11  slices along eta in each chunk
 There is a total of          121  slices in each chunk
 There are            6  chunks in the global mesh
 There is a total of          726  slices in the global mesh
 
 NGLLX =            5
 NGLLY =            5
 NGLLZ =            5
 
 Shape functions defined by NGNOD =           27  control nodes
 Surface shape functions defined by NGNOD2D =            9  control nodes
 
 model: 1D_isotropic_prem_onecrust
   no oceans
   no ellipticity
   no surface topography
   incorporating self-gravitation (Cowling approximation)
   no rotation
   no attenuation
 
   no 3-D lateral variations
   no heterogeneities in the mantle
   no crustal variations
   using one layer only in PREM crust
   no anisotropy
   no inner-core anisotropy
   no general mantle anisotropy
 
 Reference radius of the Earth used is    6371.00000000000       km
 
 Central cube is at a radius of    965.000000000000       km
 creating global slice addressing
 
 Spatial distribution of the slices
                      120  109   98   87   76   65   54   43   32   21   10
                      119  108   97   86   75   64   53   42   31   20    9
                      118  107   96   85   74   63   52   41   30   19    8
                      117  106   95   84   73   62   51   40   29   18    7
                      116  105   94   83   72   61   50   39   28   17    6
                      115  104   93   82   71   60   49   38   27   16    5
                      114  103   92   81   70   59   48   37   26   15    4
                      113  102   91   80   69   58   47   36   25   14    3
                      112  101   90   79   68   57   46   35   24   13    2
                      111  100   89   78   67   56   45   34   23   12    1
                      110   99   88   77   66   55   44   33   22   11    0
  
   362  351  340  329  318  307  296  285  274  263  252     241  230  219  208  197  186  175  164  153  142  131     604  593  582  571  560  549  538  527  516  505  494
   361  350  339  328  317  306  295  284  273  262  251     240  229  218  207  196  185  174  163  152  141  130     603  592  581  570  559  548  537  526  515  504  493
   360  349  338  327  316  305  294  283  272  261  250     239  228  217  206  195  184  173  162  151  140  129     602  591  580  569  558  547  536  525  514  503  492
   359  348  337  326  315  304  293  282  271  260  249     238  227  216  205  194  183  172  161  150  139  128     601  590  579  568  557  546  535  524  513  502  491
   358  347  336  325  314  303  292  281  270  259  248     237  226  215  204  193  182  171  160  149  138  127     600  589  578  567  556  545  534  523  512  501  490
   357  346  335  324  313  302  291  280  269  258  247     236  225  214  203  192  181  170  159  148  137  126     599  588  577  566  555  544  533  522  511  500  489
   356  345  334  323  312  301  290  279  268  257  246     235  224  213  202  191  180  169  158  147  136  125     598  587  576  565  554  543  532  521  510  499  488
   355  344  333  322  311  300  289  278  267  256  245     234  223  212  201  190  179  168  157  146  135  124     597  586  575  564  553  542  531  520  509  498  487
   354  343  332  321  310  299  288  277  266  255  244     233  222  211  200  189  178  167  156  145  134  123     596  585  574  563  552  541  530  519  508  497  486
   353  342  331  320  309  298  287  276  265  254  243     232  221  210  199  188  177  166  155  144  133  122     595  584  573  562  551  540  529  518  507  496  485
   352  341  330  319  308  297  286  275  264  253  242     231  220  209  198  187  176  165  154  143  132  121     594  583  572  561  550  539  528  517  506  495  484
  
                      725  714  703  692  681  670  659  648  637  626  615
                      724  713  702  691  680  669  658  647  636  625  614
                      723  712  701  690  679  668  657  646  635  624  613
                      722  711  700  689  678  667  656  645  634  623  612
                      721  710  699  688  677  666  655  644  633  622  611
                      720  709  698  687  676  665  654  643  632  621  610
                      719  708  697  686  675  664  653  642  631  620  609
                      718  707  696  685  674  663  652  641  630  619  608
                      717  706  695  684  673  662  651  640  629  618  607
                      716  705  694  683  672  661  650  639  628  617  606
                      715  704  693  682  671  660  649  638  627  616  605
  
                      483  472  461  450  439  428  417  406  395  384  373
                      482  471  460  449  438  427  416  405  394  383  372
                      481  470  459  448  437  426  415  404  393  382  371
                      480  469  458  447  436  425  414  403  392  381  370
                      479  468  457  446  435  424  413  402  391  380  369
                      478  467  456  445  434  423  412  401  390  379  368
                      477  466  455  444  433  422  411  400  389  378  367
                      476  465  454  443  432  421  410  399  388  377  366
                      475  464  453  442  431  420  409  398  387  376  365
                      474  463  452  441  430  419  408  397  386  375  364
                      473  462  451  440  429  418  407  396  385  374  363
  
 
 
 
 *******************************************
 creating mesh in region            1
 this region is the crust and mantle
 *******************************************
 
 
 first pass
 
   ...allocating arrays 
 
   ...setting up layers 
 
   ...creating mesh elements 
   creating layer            1 out of           10
     10.0%    time: 12h 41min 27sec
   creating layer            2 out of           10
     20.0%    time: 12h 41min 27sec
   creating layer            3 out of           10
     30.0%    time: 12h 41min 27sec
   creating layer            4 out of           10
     40.0%    time: 12h 41min 27sec
   creating layer            5 out of           10
     50.0%    time: 12h 41min 28sec
   creating layer            6 out of           10
     60.0%    time: 12h 41min 28sec
   creating layer            7 out of           10
     70.0%    time: 12h 41min 28sec
   creating layer            8 out of           10
     80.0%    time: 12h 41min 28sec
   creating layer            9 out of           10
     90.0%    time: 12h 41min 28sec
   creating layer           10 out of           10
    100.0%    time: 12h 41min 28sec
 
 
   ...creating global addressing
 
   ...creating MPI buffers
 
 second pass
 
   ...allocating arrays 
 
   ...setting up layers 
 
   ...creating mesh elements 
   creating layer            1 out of           10
     10.0%    time: 12h 41min 29sec
   creating layer            2 out of           10
     20.0%    time: 12h 41min 29sec
   creating layer            3 out of           10
     30.0%    time: 12h 41min 29sec
   creating layer            4 out of           10
     40.0%    time: 12h 41min 30sec
   creating layer            5 out of           10
     50.0%    time: 12h 41min 30sec
   creating layer            6 out of           10
     60.0%    time: 12h 41min 30sec
   creating layer            7 out of           10
     70.0%    time: 12h 41min 30sec
   creating layer            8 out of           10
     80.0%    time: 12h 41min 31sec
   creating layer            9 out of           10
     90.0%    time: 12h 41min 31sec
   creating layer           10 out of           10
    100.0%    time: 12h 41min 31sec
 
 
   ...precomputing jacobian
 
   ...creating chunk buffers
 
 ----- creating chunk buffers -----
 
 There are           11  slices along xi in each chunk
 There are           11  slices along eta in each chunk
 There is a total of          121  slices in each chunk
 There are            6  chunks
 There is a total of          726  slices in all the chunks
 
 There is a total of          132  messages to assemble faces between chunks
 
 Generating message            1  for faces out of          132
 Generating message            2  for faces out of          132
 Generating message            3  for faces out of          132
 Generating message            4  for faces out of          132
 Generating message            5  for faces out of          132
 Generating message            6  for faces out of          132
 Generating message            7  for faces out of          132
 Generating message            8  for faces out of          132
 Generating message            9  for faces out of          132
 Generating message           10  for faces out of          132
 Generating message           11  for faces out of          132
 Generating message           12  for faces out of          132
 Generating message           13  for faces out of          132
 Generating message           14  for faces out of          132
 Generating message           15  for faces out of          132
 Generating message           16  for faces out of          132
 Generating message           17  for faces out of          132
 Generating message           18  for faces out of          132
 Generating message           19  for faces out of          132
 Generating message           20  for faces out of          132
 Generating message           21  for faces out of          132
 Generating message           22  for faces out of          132
 Generating message           23  for faces out of          132
 Generating message           24  for faces out of          132
 Generating message           25  for faces out of          132
 Generating message           26  for faces out of          132
 Generating message           27  for faces out of          132
 Generating message           28  for faces out of          132
 Generating message           29  for faces out of          132
 Generating message           30  for faces out of          132
 Generating message           31  for faces out of          132
 Generating message           32  for faces out of          132
 Generating message           33  for faces out of          132
 Generating message           34  for faces out of          132
 Generating message           35  for faces out of          132
 Generating message           36  for faces out of          132
 Generating message           37  for faces out of          132
 Generating message           38  for faces out of          132
 Generating message           39  for faces out of          132
 Generating message           40  for faces out of          132
 Generating message           41  for faces out of          132
 Generating message           42  for faces out of          132
 Generating message           43  for faces out of          132
 Generating message           44  for faces out of          132
 Generating message           45  for faces out of          132
 Generating message           46  for faces out of          132
 Generating message           47  for faces out of          132
 Generating message           48  for faces out of          132
 Generating message           49  for faces out of          132
 Generating message           50  for faces out of          132
 Generating message           51  for faces out of          132
 Generating message           52  for faces out of          132
 Generating message           53  for faces out of          132
 Generating message           54  for faces out of          132
 Generating message           55  for faces out of          132
 Generating message           56  for faces out of          132
 Generating message           57  for faces out of          132
 Generating message           58  for faces out of          132
 Generating message           59  for faces out of          132
 Generating message           60  for faces out of          132
 Generating message           61  for faces out of          132
 Generating message           62  for faces out of          132
 Generating message           63  for faces out of          132
 Generating message           64  for faces out of          132
 Generating message           65  for faces out of          132
 Generating message           66  for faces out of          132
 Generating message           67  for faces out of          132
 Generating message           68  for faces out of          132
 Generating message           69  for faces out of          132
 Generating message           70  for faces out of          132
 Generating message           71  for faces out of          132
 Generating message           72  for faces out of          132
 Generating message           73  for faces out of          132
 Generating message           74  for faces out of          132
 Generating message           75  for faces out of          132
 Generating message           76  for faces out of          132
 Generating message           77  for faces out of          132
 Generating message           78  for faces out of          132
 Generating message           79  for faces out of          132
 Generating message           80  for faces out of          132
 Generating message           81  for faces out of          132
 Generating message           82  for faces out of          132
 Generating message           83  for faces out of          132
 Generating message           84  for faces out of          132
 Generating message           85  for faces out of          132
 Generating message           86  for faces out of          132
 Generating message           87  for faces out of          132
 Generating message           88  for faces out of          132
 Generating message           89  for faces out of          132
 Generating message           90  for faces out of          132
 Generating message           91  for faces out of          132
 Generating message           92  for faces out of          132
 Generating message           93  for faces out of          132
 Generating message           94  for faces out of          132
 Generating message           95  for faces out of          132
 Generating message           96  for faces out of          132
 Generating message           97  for faces out of          132
 Generating message           98  for faces out of          132
 Generating message           99  for faces out of          132
 Generating message          100  for faces out of          132
 Generating message          101  for faces out of          132
 Generating message          102  for faces out of          132
 Generating message          103  for faces out of          132
 Generating message          104  for faces out of          132
 Generating message          105  for faces out of          132
 Generating message          106  for faces out of          132
 Generating message          107  for faces out of          132
 Generating message          108  for faces out of          132
 Generating message          109  for faces out of          132
 Generating message          110  for faces out of          132
 Generating message          111  for faces out of          132
 Generating message          112  for faces out of          132
 Generating message          113  for faces out of          132
 Generating message          114  for faces out of          132
 Generating message          115  for faces out of          132
 Generating message          116  for faces out of          132
 Generating message          117  for faces out of          132
 Generating message          118  for faces out of          132
 Generating message          119  for faces out of          132
 Generating message          120  for faces out of          132
 Generating message          121  for faces out of          132
 Generating message          122  for faces out of          132
 Generating message          123  for faces out of          132
 Generating message          124  for faces out of          132
 Generating message          125  for faces out of          132
 Generating message          126  for faces out of          132
 Generating message          127  for faces out of          132
 Generating message          128  for faces out of          132
 Generating message          129  for faces out of          132
 Generating message          130  for faces out of          132
 Generating message          131  for faces out of          132
 Generating message          132  for faces out of          132
 
 all the messages for chunk faces have the right size
 
 Generating message            1  for corners out of            8
 Generating message            2  for corners out of            8
 Generating message            3  for corners out of            8
 Generating message            4  for corners out of            8
 Generating message            5  for corners out of            8
 Generating message            6  for corners out of            8
 Generating message            7  for corners out of            8
 Generating message            8  for corners out of            8
 
   ...preparing MPI interfaces
 
 crust/mantle region:
   #max of points in MPI buffers along xi npoin2D_xi =         4409
   #max of array elements transferred npoin2D_xi*NDIM =        13227
 
   #max of points in MPI buffers along eta npoin2D_eta =         4409
   #max of array elements transferred npoin2D_eta*NDIM =        13227
 
 crust mantle mpi:
   mpi addressing maximum interfaces:           8
   mpi addressing : all interfaces okay
 
   total MPI interface points :     13221336
   unique MPI interface points:     12382656
   maximum valence            :            3
   total unique MPI interface points:    12382656
 
 
   ...element inner/outer separation
 
 for overlapping of communications with calculations:
 
 percentage of edge elements in crust/mantle    42.01389     %
 percentage of volume elements in crust/mantle    57.98611     %
 
 
   ...element mesh coloring
   mesh coloring:  F
 
   ...creating mass matrix
 
   ...saving binary files
 
    calculated top area:    12.5663706141437     
             exact area:    12.5663706143592     
 
 calculated bottom area:    3.74932545030542     
             exact area:    3.74932546676467     
 
 *******************************************
 creating mesh in region            2
 this region is the outer core
 *******************************************
 
 
 first pass
 
   ...allocating arrays 
 
   ...setting up layers 
 
   ...creating mesh elements 
   creating layer            1 out of            2
     50.0%    time: 12h 41min 34sec
   creating layer            2 out of            2
    100.0%    time: 12h 41min 34sec
 
 
   ...creating global addressing
 
   ...creating MPI buffers
 
 second pass
 
   ...allocating arrays 
 
   ...setting up layers 
 
   ...creating mesh elements 
   creating layer            1 out of            2
     50.0%    time: 12h 41min 35sec
   creating layer            2 out of            2
    100.0%    time: 12h 41min 35sec
 
 
   ...precomputing jacobian
 
   ...creating chunk buffers
 
 ----- creating chunk buffers -----
 
 There are           11  slices along xi in each chunk
 There are           11  slices along eta in each chunk
 There is a total of          121  slices in each chunk
 There are            6  chunks
 There is a total of          726  slices in all the chunks
 
 There is a total of          132  messages to assemble faces between chunks
 
 Generating message            1  for faces out of          132
 Generating message            2  for faces out of          132
 Generating message            3  for faces out of          132
 Generating message            4  for faces out of          132
 Generating message            5  for faces out of          132
 Generating message            6  for faces out of          132
 Generating message            7  for faces out of          132
 Generating message            8  for faces out of          132
 Generating message            9  for faces out of          132
 Generating message           10  for faces out of          132
 Generating message           11  for faces out of          132
 Generating message           12  for faces out of          132
 Generating message           13  for faces out of          132
 Generating message           14  for faces out of          132
 Generating message           15  for faces out of          132
 Generating message           16  for faces out of          132
 Generating message           17  for faces out of          132
 Generating message           18  for faces out of          132
 Generating message           19  for faces out of          132
 Generating message           20  for faces out of          132
 Generating message           21  for faces out of          132
 Generating message           22  for faces out of          132
 Generating message           23  for faces out of          132
 Generating message           24  for faces out of          132
 Generating message           25  for faces out of          132
 Generating message           26  for faces out of          132
 Generating message           27  for faces out of          132
 Generating message           28  for faces out of          132
 Generating message           29  for faces out of          132
 Generating message           30  for faces out of          132
 Generating message           31  for faces out of          132
 Generating message           32  for faces out of          132
 Generating message           33  for faces out of          132
 Generating message           34  for faces out of          132
 Generating message           35  for faces out of          132
 Generating message           36  for faces out of          132
 Generating message           37  for faces out of          132
 Generating message           38  for faces out of          132
 Generating message           39  for faces out of          132
 Generating message           40  for faces out of          132
 Generating message           41  for faces out of          132
 Generating message           42  for faces out of          132
 Generating message           43  for faces out of          132
 Generating message           44  for faces out of          132
 Generating message           45  for faces out of          132
 Generating message           46  for faces out of          132
 Generating message           47  for faces out of          132
 Generating message           48  for faces out of          132
 Generating message           49  for faces out of          132
 Generating message           50  for faces out of          132
 Generating message           51  for faces out of          132
 Generating message           52  for faces out of          132
 Generating message           53  for faces out of          132
 Generating message           54  for faces out of          132
 Generating message           55  for faces out of          132
 Generating message           56  for faces out of          132
 Generating message           57  for faces out of          132
 Generating message           58  for faces out of          132
 Generating message           59  for faces out of          132
 Generating message           60  for faces out of          132
 Generating message           61  for faces out of          132
 Generating message           62  for faces out of          132
 Generating message           63  for faces out of          132
 Generating message           64  for faces out of          132
 Generating message           65  for faces out of          132
 Generating message           66  for faces out of          132
 Generating message           67  for faces out of          132
 Generating message           68  for faces out of          132
 Generating message           69  for faces out of          132
 Generating message           70  for faces out of          132
 Generating message           71  for faces out of          132
 Generating message           72  for faces out of          132
 Generating message           73  for faces out of          132
 Generating message           74  for faces out of          132
 Generating message           75  for faces out of          132
 Generating message           76  for faces out of          132
 Generating message           77  for faces out of          132
 Generating message           78  for faces out of          132
 Generating message           79  for faces out of          132
 Generating message           80  for faces out of          132
 Generating message           81  for faces out of          132
 Generating message           82  for faces out of          132
 Generating message           83  for faces out of          132
 Generating message           84  for faces out of          132
 Generating message           85  for faces out of          132
 Generating message           86  for faces out of          132
 Generating message           87  for faces out of          132
 Generating message           88  for faces out of          132
 Generating message           89  for faces out of          132
 Generating message           90  for faces out of          132
 Generating message           91  for faces out of          132
 Generating message           92  for faces out of          132
 Generating message           93  for faces out of          132
 Generating message           94  for faces out of          132
 Generating message           95  for faces out of          132
 Generating message           96  for faces out of          132
 Generating message           97  for faces out of          132
 Generating message           98  for faces out of          132
 Generating message           99  for faces out of          132
 Generating message          100  for faces out of          132
 Generating message          101  for faces out of          132
 Generating message          102  for faces out of          132
 Generating message          103  for faces out of          132
 Generating message          104  for faces out of          132
 Generating message          105  for faces out of          132
 Generating message          106  for faces out of          132
 Generating message          107  for faces out of          132
 Generating message          108  for faces out of          132
 Generating message          109  for faces out of          132
 Generating message          110  for faces out of          132
 Generating message          111  for faces out of          132
 Generating message          112  for faces out of          132
 Generating message          113  for faces out of          132
 Generating message          114  for faces out of          132
 Generating message          115  for faces out of          132
 Generating message          116  for faces out of          132
 Generating message          117  for faces out of          132
 Generating message          118  for faces out of          132
 Generating message          119  for faces out of          132
 Generating message          120  for faces out of          132
 Generating message          121  for faces out of          132
 Generating message          122  for faces out of          132
 Generating message          123  for faces out of          132
 Generating message          124  for faces out of          132
 Generating message          125  for faces out of          132
 Generating message          126  for faces out of          132
 Generating message          127  for faces out of          132
 Generating message          128  for faces out of          132
 Generating message          129  for faces out of          132
 Generating message          130  for faces out of          132
 Generating message          131  for faces out of          132
 Generating message          132  for faces out of          132
 
 all the messages for chunk faces have the right size
 
 Generating message            1  for corners out of            8
 Generating message            2  for corners out of            8
 Generating message            3  for corners out of            8
 Generating message            4  for corners out of            8
 Generating message            5  for corners out of            8
 Generating message            6  for corners out of            8
 Generating message            7  for corners out of            8
 Generating message            8  for corners out of            8
 
   ...preparing MPI interfaces
 
 outer core region:
   #max of points in MPI buffers along xi npoin2D_xi =         1261
   #max of array elements transferred npoin2D_xi*NDIM =         3783
 
   #max of points in MPI buffers along eta npoin2D_eta =         1261
   #max of array elements transferred npoin2D_eta*NDIM =         3783
 
 outer core mpi:
   mpi addressing maximum interfaces:           8
   mpi addressing : all interfaces okay
 
   total MPI interface points :      3941304
   unique MPI interface points:      3380256
   maximum valence            :            3
   total assembled MPI interface points:     3380256
 
 
   ...element inner/outer separation
 percentage of edge elements in outer core    81.66666     %
 percentage of volume elements in outer core    18.33334     %
 
 
   ...element mesh coloring
   mesh coloring:  F
 
   ...creating mass matrix
 
   ...saving binary files
 
    calculated top area:    3.74932545030542     
             exact area:    3.74932546676467     
 
 calculated bottom area:   0.461557647601120     
             exact area:   0.461557680026829     
 
 *******************************************
 creating mesh in region            3
 this region is the inner core
 *******************************************
 
 
 first pass
 
   ...allocating arrays 
 
   ...setting up layers 
 
   ...creating mesh elements 
   creating layer            1 out of            1
    100.0%    time: 12h 41min 36sec
 
   creating central cube
 
   ...creating global addressing
 
   ...creating MPI buffers
 
 second pass
 
   ...allocating arrays 
 
   ...setting up layers 
 
   ...creating mesh elements 
   creating layer            1 out of            1
    100.0%    time: 12h 41min 37sec
 
   creating central cube
 
   ...precomputing jacobian
 
   ...creating chunk buffers
 
 ----- creating chunk buffers -----
 
 There are           11  slices along xi in each chunk
 There are           11  slices along eta in each chunk
 There is a total of          121  slices in each chunk
 There are            6  chunks
 There is a total of          726  slices in all the chunks
 
 There is a total of          132  messages to assemble faces between chunks
 
 Generating message            1  for faces out of          132
 Generating message            2  for faces out of          132
 Generating message            3  for faces out of          132
 Generating message            4  for faces out of          132
 Generating message            5  for faces out of          132
 Generating message            6  for faces out of          132
 Generating message            7  for faces out of          132
 Generating message            8  for faces out of          132
 Generating message            9  for faces out of          132
 Generating message           10  for faces out of          132
 Generating message           11  for faces out of          132
 Generating message           12  for faces out of          132
 Generating message           13  for faces out of          132
 Generating message           14  for faces out of          132
 Generating message           15  for faces out of          132
 Generating message           16  for faces out of          132
 Generating message           17  for faces out of          132
 Generating message           18  for faces out of          132
 Generating message           19  for faces out of          132
 Generating message           20  for faces out of          132
 Generating message           21  for faces out of          132
 Generating message           22  for faces out of          132
 Generating message           23  for faces out of          132
 Generating message           24  for faces out of          132
 Generating message           25  for faces out of          132
 Generating message           26  for faces out of          132
 Generating message           27  for faces out of          132
 Generating message           28  for faces out of          132
 Generating message           29  for faces out of          132
 Generating message           30  for faces out of          132
 Generating message           31  for faces out of          132
 Generating message           32  for faces out of          132
 Generating message           33  for faces out of          132
 Generating message           34  for faces out of          132
 Generating message           35  for faces out of          132
 Generating message           36  for faces out of          132
 Generating message           37  for faces out of          132
 Generating message           38  for faces out of          132
 Generating message           39  for faces out of          132
 Generating message           40  for faces out of          132
 Generating message           41  for faces out of          132
 Generating message           42  for faces out of          132
 Generating message           43  for faces out of          132
 Generating message           44  for faces out of          132
 Generating message           45  for faces out of          132
 Generating message           46  for faces out of          132
 Generating message           47  for faces out of          132
 Generating message           48  for faces out of          132
 Generating message           49  for faces out of          132
 Generating message           50  for faces out of          132
 Generating message           51  for faces out of          132
 Generating message           52  for faces out of          132
 Generating message           53  for faces out of          132
 Generating message           54  for faces out of          132
 Generating message           55  for faces out of          132
 Generating message           56  for faces out of          132
 Generating message           57  for faces out of          132
 Generating message           58  for faces out of          132
 Generating message           59  for faces out of          132
 Generating message           60  for faces out of          132
 Generating message           61  for faces out of          132
 Generating message           62  for faces out of          132
 Generating message           63  for faces out of          132
 Generating message           64  for faces out of          132
 Generating message           65  for faces out of          132
 Generating message           66  for faces out of          132
 Generating message           67  for faces out of          132
 Generating message           68  for faces out of          132
 Generating message           69  for faces out of          132
 Generating message           70  for faces out of          132
 Generating message           71  for faces out of          132
 Generating message           72  for faces out of          132
 Generating message           73  for faces out of          132
 Generating message           74  for faces out of          132
 Generating message           75  for faces out of          132
 Generating message           76  for faces out of          132
 Generating message           77  for faces out of          132
 Generating message           78  for faces out of          132
 Generating message           79  for faces out of          132
 Generating message           80  for faces out of          132
 Generating message           81  for faces out of          132
 Generating message           82  for faces out of          132
 Generating message           83  for faces out of          132
 Generating message           84  for faces out of          132
 Generating message           85  for faces out of          132
 Generating message           86  for faces out of          132
 Generating message           87  for faces out of          132
 Generating message           88  for faces out of          132
 Generating message           89  for faces out of          132
 Generating message           90  for faces out of          132
 Generating message           91  for faces out of          132
 Generating message           92  for faces out of          132
 Generating message           93  for faces out of          132
 Generating message           94  for faces out of          132
 Generating message           95  for faces out of          132
 Generating message           96  for faces out of          132
 Generating message           97  for faces out of          132
 Generating message           98  for faces out of          132
 Generating message           99  for faces out of          132
 Generating message          100  for faces out of          132
 Generating message          101  for faces out of          132
 Generating message          102  for faces out of          132
 Generating message          103  for faces out of          132
 Generating message          104  for faces out of          132
 Generating message          105  for faces out of          132
 Generating message          106  for faces out of          132
 Generating message          107  for faces out of          132
 Generating message          108  for faces out of          132
 Generating message          109  for faces out of          132
 Generating message          110  for faces out of          132
 Generating message          111  for faces out of          132
 Generating message          112  for faces out of          132
 Generating message          113  for faces out of          132
 Generating message          114  for faces out of          132
 Generating message          115  for faces out of          132
 Generating message          116  for faces out of          132
 Generating message          117  for faces out of          132
 Generating message          118  for faces out of          132
 Generating message          119  for faces out of          132
 Generating message          120  for faces out of          132
 Generating message          121  for faces out of          132
 Generating message          122  for faces out of          132
 Generating message          123  for faces out of          132
 Generating message          124  for faces out of          132
 Generating message          125  for faces out of          132
 Generating message          126  for faces out of          132
 Generating message          127  for faces out of          132
 Generating message          128  for faces out of          132
 Generating message          129  for faces out of          132
 Generating message          130  for faces out of          132
 Generating message          131  for faces out of          132
 Generating message          132  for faces out of          132
 
 all the messages for chunk faces have the right size
 
 Generating message            1  for corners out of            8
 Generating message            2  for corners out of            8
 Generating message            3  for corners out of            8
 Generating message            4  for corners out of            8
 Generating message            5  for corners out of            8
 Generating message            6  for corners out of            8
 Generating message            7  for corners out of            8
 Generating message            8  for corners out of            8
 
   ...preparing MPI interfaces
 
 inner core region:
   #max of points in MPI buffers along xi npoin2D_xi =          909
   #max of array elements transferred npoin2D_xi*NDIM =         2727
 
   #max of points in MPI buffers along eta npoin2D_eta =          909
   #max of array elements transferred npoin2D_eta*NDIM =         2727
 
 
 including central cube
 
 inner core mpi:
 inner core with central cube mpi:
   mpi addressing maximum interfaces:          35
   mpi addressing : all interfaces okay
 
   total MPI interface points :       883458
   unique MPI interface points:       678326
   maximum valence            :            7
   total assembled MPI interface points:      678326
 
 
   ...element inner/outer separation
 percentage of edge elements in inner core    60.00000     %
 percentage of volume elements in inner core    40.00000     %
 
 
   ...element mesh coloring
   mesh coloring:  F
 
   ...creating mass matrix
 
   ...saving binary files
 
    calculated top area:   0.461557647601120     
             exact area:   0.461557680026829     
 
 calculated bottom area:   0.218434306695010     
             similar area (central cube):   0.183539447107243     
 
 *******************************************
 creating mesh in region            4
 this region is the transition-to-infinity layer
 *******************************************
 
 
 first pass
 
   ...allocating arrays 
 
   ...creating global addressing
 
   ...creating MPI buffers
 
 second pass
 
   ...allocating arrays 
 
   ...precomputing jacobian
 
   ...creating chunk buffers
 
 ----- creating chunk buffers -----
 
 There are           11  slices along xi in each chunk
 There are           11  slices along eta in each chunk
 There is a total of          121  slices in each chunk
 There are            6  chunks
 There is a total of          726  slices in all the chunks
 
 There is a total of          132  messages to assemble faces between chunks
 
 Generating message            1  for faces out of          132
 Generating message            2  for faces out of          132
 Generating message            3  for faces out of          132
 Generating message            4  for faces out of          132
 Generating message            5  for faces out of          132
 Generating message            6  for faces out of          132
 Generating message            7  for faces out of          132
 Generating message            8  for faces out of          132
 Generating message            9  for faces out of          132
 Generating message           10  for faces out of          132
 Generating message           11  for faces out of          132
 Generating message           12  for faces out of          132
 Generating message           13  for faces out of          132
 Generating message           14  for faces out of          132
 Generating message           15  for faces out of          132
 Generating message           16  for faces out of          132
 Generating message           17  for faces out of          132
 Generating message           18  for faces out of          132
 Generating message           19  for faces out of          132
 Generating message           20  for faces out of          132
 Generating message           21  for faces out of          132
 Generating message           22  for faces out of          132
 Generating message           23  for faces out of          132
 Generating message           24  for faces out of          132
 Generating message           25  for faces out of          132
 Generating message           26  for faces out of          132
 Generating message           27  for faces out of          132
 Generating message           28  for faces out of          132
 Generating message           29  for faces out of          132
 Generating message           30  for faces out of          132
 Generating message           31  for faces out of          132
 Generating message           32  for faces out of          132
 Generating message           33  for faces out of          132
 Generating message           34  for faces out of          132
 Generating message           35  for faces out of          132
 Generating message           36  for faces out of          132
 Generating message           37  for faces out of          132
 Generating message           38  for faces out of          132
 Generating message           39  for faces out of          132
 Generating message           40  for faces out of          132
 Generating message           41  for faces out of          132
 Generating message           42  for faces out of          132
 Generating message           43  for faces out of          132
 Generating message           44  for faces out of          132
 Generating message           45  for faces out of          132
 Generating message           46  for faces out of          132
 Generating message           47  for faces out of          132
 Generating message           48  for faces out of          132
 Generating message           49  for faces out of          132
 Generating message           50  for faces out of          132
 Generating message           51  for faces out of          132
 Generating message           52  for faces out of          132
 Generating message           53  for faces out of          132
 Generating message           54  for faces out of          132
 Generating message           55  for faces out of          132
 Generating message           56  for faces out of          132
 Generating message           57  for faces out of          132
 Generating message           58  for faces out of          132
 Generating message           59  for faces out of          132
 Generating message           60  for faces out of          132
 Generating message           61  for faces out of          132
 Generating message           62  for faces out of          132
 Generating message           63  for faces out of          132
 Generating message           64  for faces out of          132
 Generating message           65  for faces out of          132
 Generating message           66  for faces out of          132
 Generating message           67  for faces out of          132
 Generating message           68  for faces out of          132
 Generating message           69  for faces out of          132
 Generating message           70  for faces out of          132
 Generating message           71  for faces out of          132
 Generating message           72  for faces out of          132
 Generating message           73  for faces out of          132
 Generating message           74  for faces out of          132
 Generating message           75  for faces out of          132
 Generating message           76  for faces out of          132
 Generating message           77  for faces out of          132
 Generating message           78  for faces out of          132
 Generating message           79  for faces out of          132
 Generating message           80  for faces out of          132
 Generating message           81  for faces out of          132
 Generating message           82  for faces out of          132
 Generating message           83  for faces out of          132
 Generating message           84  for faces out of          132
 Generating message           85  for faces out of          132
 Generating message           86  for faces out of          132
 Generating message           87  for faces out of          132
 Generating message           88  for faces out of          132
 Generating message           89  for faces out of          132
 Generating message           90  for faces out of          132
 Generating message           91  for faces out of          132
 Generating message           92  for faces out of          132
 Generating message           93  for faces out of          132
 Generating message           94  for faces out of          132
 Generating message           95  for faces out of          132
 Generating message           96  for faces out of          132
 Generating message           97  for faces out of          132
 Generating message           98  for faces out of          132
 Generating message           99  for faces out of          132
 Generating message          100  for faces out of          132
 Generating message          101  for faces out of          132
 Generating message          102  for faces out of          132
 Generating message          103  for faces out of          132
 Generating message          104  for faces out of          132
 Generating message          105  for faces out of          132
 Generating message          106  for faces out of          132
 Generating message          107  for faces out of          132
 Generating message          108  for faces out of          132
 Generating message          109  for faces out of          132
 Generating message          110  for faces out of          132
 Generating message          111  for faces out of          132
 Generating message          112  for faces out of          132
 Generating message          113  for faces out of          132
 Generating message          114  for faces out of          132
 Generating message          115  for faces out of          132
 Generating message          116  for faces out of          132
 Generating message          117  for faces out of          132
 Generating message          118  for faces out of          132
 Generating message          119  for faces out of          132
 Generating message          120  for faces out of          132
 Generating message          121  for faces out of          132
 Generating message          122  for faces out of          132
 Generating message          123  for faces out of          132
 Generating message          124  for faces out of          132
 Generating message          125  for faces out of          132
 Generating message          126  for faces out of          132
 Generating message          127  for faces out of          132
 Generating message          128  for faces out of          132
 Generating message          129  for faces out of          132
 Generating message          130  for faces out of          132
 Generating message          131  for faces out of          132
 Generating message          132  for faces out of          132
 
 all the messages for chunk faces have the right size
 
 Generating message            1  for corners out of            8
 Generating message            2  for corners out of            8
 Generating message            3  for corners out of            8
 Generating message            4  for corners out of            8
 Generating message            5  for corners out of            8
 Generating message            6  for corners out of            8
 Generating message            7  for corners out of            8
 Generating message            8  for corners out of            8
 
   ...preparing MPI interfaces
 
 transition infinite region:
   #max of points in MPI buffers along xi npoin2D_xi =         2665
   #max of array elements transferred npoin2D_xi*NDIM =         7995
 
   #max of points in MPI buffers along eta npoin2D_eta =         2665
   #max of array elements transferred npoin2D_eta*NDIM =         7995
 
 transition infinite mpi:
   mpi addressing maximum interfaces:           8
   mpi addressing : all interfaces okay
 
   total MPI interface points :      7857240
   unique MPI interface points:      7620096
   maximum valence            :            3
   total assembled MPI interface points:     7620096
 
 
   ...element inner/outer separation
 percentage of edge elements in outer core    23.43750     %
 percentage of volume elements in outer core    76.56250     %
 
 
   ...element mesh coloring
   mesh coloring:  F
 
   ...creating mass matrix
 
   ...saving binary files
 
    calculated top area:                      NaN
             exact area:   5.847558254062779E-013
 
 calculated bottom area:                      NaN
             exact area:   5.847558254062779E-013
 
 *******************************************
 creating mesh in region            5
 this region is the infinity layer
 *******************************************
 
 
 first pass
 
   ...allocating arrays 
 
   ...creating global addressing
 
   ...creating MPI buffers
 
 second pass
 
   ...allocating arrays 
 
   ...precomputing jacobian
 
   ...creating chunk buffers
 
 ----- creating chunk buffers -----
 
 There are           11  slices along xi in each chunk
 There are           11  slices along eta in each chunk
 There is a total of          121  slices in each chunk
 There are            6  chunks
 There is a total of          726  slices in all the chunks
 
 There is a total of          132  messages to assemble faces between chunks
 
 Generating message            1  for faces out of          132
 Generating message            2  for faces out of          132
 Generating message            3  for faces out of          132
 Generating message            4  for faces out of          132
 Generating message            5  for faces out of          132
 Generating message            6  for faces out of          132
 Generating message            7  for faces out of          132
 Generating message            8  for faces out of          132
 Generating message            9  for faces out of          132
 Generating message           10  for faces out of          132
 Generating message           11  for faces out of          132
 Generating message           12  for faces out of          132
 Generating message           13  for faces out of          132
 Generating message           14  for faces out of          132
 Generating message           15  for faces out of          132
 Generating message           16  for faces out of          132
 Generating message           17  for faces out of          132
 Generating message           18  for faces out of          132
 Generating message           19  for faces out of          132
 Generating message           20  for faces out of          132
 Generating message           21  for faces out of          132
 Generating message           22  for faces out of          132
 Generating message           23  for faces out of          132
 Generating message           24  for faces out of          132
 Generating message           25  for faces out of          132
 Generating message           26  for faces out of          132
 Generating message           27  for faces out of          132
 Generating message           28  for faces out of          132
 Generating message           29  for faces out of          132
 Generating message           30  for faces out of          132
 Generating message           31  for faces out of          132
 Generating message           32  for faces out of          132
 Generating message           33  for faces out of          132
 Generating message           34  for faces out of          132
 Generating message           35  for faces out of          132
 Generating message           36  for faces out of          132
 Generating message           37  for faces out of          132
 Generating message           38  for faces out of          132
 Generating message           39  for faces out of          132
 Generating message           40  for faces out of          132
 Generating message           41  for faces out of          132
 Generating message           42  for faces out of          132
 Generating message           43  for faces out of          132
 Generating message           44  for faces out of          132
 Generating message           45  for faces out of          132
 Generating message           46  for faces out of          132
 Generating message           47  for faces out of          132
 Generating message           48  for faces out of          132
 Generating message           49  for faces out of          132
 Generating message           50  for faces out of          132
 Generating message           51  for faces out of          132
 Generating message           52  for faces out of          132
 Generating message           53  for faces out of          132
 Generating message           54  for faces out of          132
 Generating message           55  for faces out of          132
 Generating message           56  for faces out of          132
 Generating message           57  for faces out of          132
 Generating message           58  for faces out of          132
 Generating message           59  for faces out of          132
 Generating message           60  for faces out of          132
 Generating message           61  for faces out of          132
 Generating message           62  for faces out of          132
 Generating message           63  for faces out of          132
 Generating message           64  for faces out of          132
 Generating message           65  for faces out of          132
 Generating message           66  for faces out of          132
 Generating message           67  for faces out of          132
 Generating message           68  for faces out of          132
 Generating message           69  for faces out of          132
 Generating message           70  for faces out of          132
 Generating message           71  for faces out of          132
 Generating message           72  for faces out of          132
 Generating message           73  for faces out of          132
 Generating message           74  for faces out of          132
 Generating message           75  for faces out of          132
 Generating message           76  for faces out of          132
 Generating message           77  for faces out of          132
 Generating message           78  for faces out of          132
 Generating message           79  for faces out of          132
 Generating message           80  for faces out of          132
 Generating message           81  for faces out of          132
 Generating message           82  for faces out of          132
 Generating message           83  for faces out of          132
 Generating message           84  for faces out of          132
 Generating message           85  for faces out of          132
 Generating message           86  for faces out of          132
 Generating message           87  for faces out of          132
 Generating message           88  for faces out of          132
 Generating message           89  for faces out of          132
 Generating message           90  for faces out of          132
 Generating message           91  for faces out of          132
 Generating message           92  for faces out of          132
 Generating message           93  for faces out of          132
 Generating message           94  for faces out of          132
 Generating message           95  for faces out of          132
 Generating message           96  for faces out of          132
 Generating message           97  for faces out of          132
 Generating message           98  for faces out of          132
 Generating message           99  for faces out of          132
 Generating message          100  for faces out of          132
 Generating message          101  for faces out of          132
 Generating message          102  for faces out of          132
 Generating message          103  for faces out of          132
 Generating message          104  for faces out of          132
 Generating message          105  for faces out of          132
 Generating message          106  for faces out of          132
 Generating message          107  for faces out of          132
 Generating message          108  for faces out of          132
 Generating message          109  for faces out of          132
 Generating message          110  for faces out of          132
 Generating message          111  for faces out of          132
 Generating message          112  for faces out of          132
 Generating message          113  for faces out of          132
 Generating message          114  for faces out of          132
 Generating message          115  for faces out of          132
 Generating message          116  for faces out of          132
 Generating message          117  for faces out of          132
 Generating message          118  for faces out of          132
 Generating message          119  for faces out of          132
 Generating message          120  for faces out of          132
 Generating message          121  for faces out of          132
 Generating message          122  for faces out of          132
 Generating message          123  for faces out of          132
 Generating message          124  for faces out of          132
 Generating message          125  for faces out of          132
 Generating message          126  for faces out of          132
 Generating message          127  for faces out of          132
 Generating message          128  for faces out of          132
 Generating message          129  for faces out of          132
 Generating message          130  for faces out of          132
 Generating message          131  for faces out of          132
 Generating message          132  for faces out of          132
 
 all the messages for chunk faces have the right size
 
 Generating message            1  for corners out of            8
 Generating message            2  for corners out of            8
 Generating message            3  for corners out of            8
 Generating message            4  for corners out of            8
 Generating message            5  for corners out of            8
 Generating message            6  for corners out of            8
 Generating message            7  for corners out of            8
 Generating message            8  for corners out of            8
 
   ...preparing MPI interfaces
 
 infinite region:
   #max of points in MPI buffers along xi npoin2D_xi =          325
   #max of array elements transferred npoin2D_xi*NDIM =          975
 
   #max of points in MPI buffers along eta npoin2D_eta =          325
   #max of array elements transferred npoin2D_eta*NDIM =          975
 
 infinite mpi:
   mpi addressing maximum interfaces:           8
   mpi addressing : all interfaces okay
 
   total MPI interface points :       958200
   unique MPI interface points:       929280
   maximum valence            :            3
   total assembled MPI interface points:      929280
 
 
   ...element inner/outer separation
 percentage of edge elements in outer core    23.43750     %
 percentage of volume elements in outer core    76.56250     %
 
 
   ...element mesh coloring
   mesh coloring:  F
 
   ...creating mass matrix
 
   ...saving binary files
 
    calculated top area:                      NaN
             exact area:   1.206795153076293E-012
 
 calculated bottom area:                      NaN
             exact area:   1.206795153076293E-012
 
 calculated volume:                      NaN
      exact volume:    4.21554103453782     
 
 Repartition of elements in regions:
 ----------------------------------
 
 total number of elements in each slice:         2644
 
  - crust and mantle:    87.14069      %
  - outer core:    9.077156      %
  - inner core:    3.782148      %
 
 for some mesh statistics, see comments in file OUTPUT_FILES/values_from_mesher.
 h
 
 Load balancing = 100 % by definition
 
 
 total number of time steps in the solver will be:        84300
 
 
 time-stepping of the solver will be:   0.213750000000000     
 
 using double precision for the calculations
 
 smallest and largest possible floating-point numbers are: 
  2.225073858507201E-308  1.797693134862316E+308
 
 
 Elapsed time for mesh generation and buffer creation in seconds = 
   14.4029594240710     
 End of mesh generation
 
