 
 ******************************
 **** Specfem3D MPI Solver ****
 ******************************
 
 
 Fixing slow underflow trapping problem using small initial field
 
 There are          384  MPI processes
 Processes are numbered from 0 to          383
 
 There are          256  elements along xi in each chunk
 There are          256  elements along eta in each chunk
 
 There are            8  slices along xi in each chunk
 There are            8  slices along eta in each chunk
 There is a total of           64  slices in each chunk
 There are            6  chunks
 There is a total of          384  slices in all the chunks
 
 NDIM =            3
 
 NGLLX =            5
 NGLLY =            5
 NGLLZ =            5
 
 using double precision for the calculations
 
 smallest and largest possible floating-point numbers are: 
  2.225073858507201E-308  1.797693134862316E+308
 
 model: 1D_isotropic_prem_onecrust
   no oceans
   no ellipticity
   no surface topography
   no self-gravitation
   no full self-gravitation
   no rotation
   no attenuation
 
   no 3-D lateral variations
   no heterogeneities in the mantle
   no crustal variations
   using one layer only in PREM crust
   no transverse isotropy
   no inner-core anisotropy
   no general mantle anisotropy
 
 
 Spatial distribution of the slices
                       63   55   47   39   31   23   15    7
                       62   54   46   38   30   22   14    6
                       61   53   45   37   29   21   13    5
                       60   52   44   36   28   20   12    4
                       59   51   43   35   27   19   11    3
                       58   50   42   34   26   18   10    2
                       57   49   41   33   25   17    9    1
                       56   48   40   32   24   16    8    0
  
   191  183  175  167  159  151  143  135     127  119  111  103   95   87   79   71     319  311  303  295  287  279  271  263
   190  182  174  166  158  150  142  134     126  118  110  102   94   86   78   70     318  310  302  294  286  278  270  262
   189  181  173  165  157  149  141  133     125  117  109  101   93   85   77   69     317  309  301  293  285  277  269  261
   188  180  172  164  156  148  140  132     124  116  108  100   92   84   76   68     316  308  300  292  284  276  268  260
   187  179  171  163  155  147  139  131     123  115  107   99   91   83   75   67     315  307  299  291  283  275  267  259
   186  178  170  162  154  146  138  130     122  114  106   98   90   82   74   66     314  306  298  290  282  274  266  258
   185  177  169  161  153  145  137  129     121  113  105   97   89   81   73   65     313  305  297  289  281  273  265  257
   184  176  168  160  152  144  136  128     120  112  104   96   88   80   72   64     312  304  296  288  280  272  264  256
  
                      383  375  367  359  351  343  335  327
                      382  374  366  358  350  342  334  326
                      381  373  365  357  349  341  333  325
                      380  372  364  356  348  340  332  324
                      379  371  363  355  347  339  331  323
                      378  370  362  354  346  338  330  322
                      377  369  361  353  345  337  329  321
                      376  368  360  352  344  336  328  320
  
                      255  247  239  231  223  215  207  199
                      254  246  238  230  222  214  206  198
                      253  245  237  229  221  213  205  197
                      252  244  236  228  220  212  204  196
                      251  243  235  227  219  211  203  195
                      250  242  234  226  218  210  202  194
                      249  241  233  225  217  209  201  193
                      248  240  232  224  216  208  200  192
  
 for overlapping of communications with calculations:
 
 percentage of edge elements in crust/mantle    22.74306     %
 percentage of volume elements in crust/mantle    77.25694     %
 
 percentage of edge elements in outer core    51.66667     %
 percentage of volume elements in outer core    48.33333     %
 
 percentage of edge elements in inner core    41.42857     %
 percentage of volume elements in inner core    58.57143     %
 
 
 Elapsed time for reading mesh in seconds =    166.5249    
 
 
 *************************************
  locating source            1
 *************************************
 
 source located in slice           74
                in element         6576
 
    xi coordinate of source in that element:   0.788525457135581     
   eta coordinate of source in that element:   0.288890311531196     
 gamma coordinate of source in that element:  -0.345714876620957     
 
 Source time function is a Heaviside, convolve later
 
 
  half duration:    1.06875000000000       seconds
     time shift:   0.000000000000000E+000  seconds
 
 original (requested) position of the source:
 
       latitude:   -13.8200000000000     
      longitude:   -67.2500000000000     
          depth:    647.100000000000       km
 
 position of the source that will be used:
 
       latitude:   -13.8201392726270     
      longitude:   -67.2500000000000     
          depth:    647.100000000000       km
 
 error in location of the source:   7.2909197E-13  km
 
 maximum error in location of the sources:   7.2909197E-13  km
 
 
 Elapsed time for detection of sources in seconds =   1.844663359224796E-002
 
 End of source detection - done
 
 
 printing the source-time function
 
 printing the source spectrum
 
 Total number of receivers =           22
 
 
 ********************
  locating receivers
 ********************
 
 
 ****************************
 reading receiver information
 ****************************
 
 Station #           1 : X1.Y5    epicentral distance:     76.26914      degrees
 Station #           2 : X11.Y5    epicentral distance:     72.58041      degree
 s
 Station #           3 : X21.Y5    epicentral distance:     69.38307      degree
 s
 Station #           4 : X31.Y5    epicentral distance:     66.79688      degree
 s
 Station #           5 : X41.Y5    epicentral distance:     64.92879      degree
 s
 Station #           6 : X51.Y5    epicentral distance:     63.86168      degree
 s
 Station #           7 : X61.Y5    epicentral distance:     63.64333      degree
 s
 Station #           8 : X71.Y5    epicentral distance:     64.27948      degree
 s
 Station #           9 : X81.Y5    epicentral distance:     65.73383      degree
 s
 Station #          10 : X91.Y5    epicentral distance:     67.93493      degree
 s
 Station #          11 : X101.Y5    epicentral distance:     70.78721     
  degrees
 Station #          12 : X111.Y5    epicentral distance:     74.18219     
  degrees
 Station #          13 : X121.Y5    epicentral distance:     78.00696     
  degrees
 Station #          14 : X131.Y5    epicentral distance:     82.14889     
  degrees
 Station #          15 : X141.Y5    epicentral distance:     86.49711     
  degrees
 Station #          16 : X151.Y5    epicentral distance:     90.94174     
  degrees
 Station #          17 : X161.Y5    epicentral distance:     95.37203     
  degrees
 Station #          18 : X171.Y5    epicentral distance:     99.67435     
  degrees
 Station #          19 : X181.Y5    epicentral distance:     103.7309     
  degrees
 Station #          20 : LIGO.HN    epicentral distance:     76.08275     
  degrees
 Station #          21 : LIGO.LV    epicentral distance:     49.59536     
  degrees
 Station #          22 : PRNC.GY    epicentral distance:     54.32447     
  degrees
 
 maximum error in location of all the receivers:   2.9164516E-12  km
 
 Elapsed time for receiver detection in seconds =   6.333950161933899E-002
 
 End of receiver detection - done
 
 
 found a total of           22  receivers in all slices
 this total is okay
 
 Total number of samples for seismograms =        84400
 
 
 Reference radius of the Earth used is    6371.00000000000       km
 
 
 no oceans
 
 no ellipticity
 
 no surface topography
 
 no self-gravitation
 
 no rotation
 
 no attenuation
 
 
 
 preparing mass matrices.
 
 preparing constants.
 
 preparing gravity arrays.
 
 initializing wavefields.
 
 
 Elapsed time for preparing timerun in seconds =   0.2445357    
 
 time loop:
 
            time step:   0.2137500      s
 number of time steps:        84400
 total simulated time:    300.6447      minutes
 start time          :  -1.603125      seconds
 
 
 Starting time iteration loop...
 
 Time step #            5
 Time:  -1.2468750E-02  minutes
 Max norm displacement vector U in solid in all slices (m) = 
  3.131835234422876E-003
 Max non-dimensional potential Ufluid in fluid in all slices = 
  0.000000000000000E+000
 Elapsed time in seconds =    2.61866600811481     
 Elapsed time in hh:mm:ss =    0 h 00 m 02 s
 Mean elapsed time per time step in seconds =   0.523733201622963     
 Time steps done =            5  out of        84400
 Time steps remaining =        84395
 Estimated remaining time in seconds =    44200.4635509700     
 Estimated remaining time in hh:mm:ss =   12 h 16 m 40 s
 Estimated total run time in seconds =    44203.0822169781     
 Estimated total run time in hh:mm:ss =   12 h 16 m 43 s
 We have done   5.9241708E-03 % of that
 The run will finish approximately on (in local time): Wed Feb 02, 2022 03:47
 ************************************************************
 **** BEWARE: the above time estimates are not reliable
 **** because fewer than 100 iterations have been performed
 ************************************************************
 
 Time step #         1000
 Time:    3.532219      minutes
 Max norm displacement vector U in solid in all slices (m) = 
   5.49013640413495     
 Max non-dimensional potential Ufluid in fluid in all slices = 
  2.467459576396316E-012
 Elapsed time in seconds =    642.954155242071     
 Elapsed time in hh:mm:ss =    0 h 10 m 42 s
 Mean elapsed time per time step in seconds =   0.642954155242071     
 Time steps done =         1000  out of        84400
 Time steps remaining =        83400
 Estimated remaining time in seconds =    53622.3765471887     
 Estimated remaining time in hh:mm:ss =   14 h 53 m 42 s
 Estimated total run time in seconds =    54265.3307024308     
 Estimated total run time in hh:mm:ss =   15 h 04 m 25 s
 We have done    1.184834     % of that
 The run will finish approximately on (in local time): Wed Feb 02, 2022 06:34
 
 
 Total number of receivers saved is           22  out of           22
 
 
 Writing the seismograms by master proc alone took    10.6762352995574      
  seconds
 
 
 Total number of receivers saved is           22  out of           22
 
 
 Writing the seismograms by master proc alone took    13.9779748339206      
  seconds
 
 
 Total number of receivers saved is           22  out of           22
 
 
 Writing the seismograms by master proc alone took    12.6974459215999      
  seconds
 
 
  Total number of time steps written:         1000
 
 Time step #         2000
 Time:    7.094719      minutes
 Max norm displacement vector U in solid in all slices (m) = 
   5.48196146656718     
 Max non-dimensional potential Ufluid in fluid in all slices = 
  1.456715243467102E-011
 Elapsed time in seconds =    1324.62402423099     
 Elapsed time in hh:mm:ss =    0 h 22 m 04 s
 Mean elapsed time per time step in seconds =   0.662312012115493     
 Time steps done =         2000  out of        84400
 Time steps remaining =        82400
 Estimated remaining time in seconds =    54574.5097983167     
 Estimated remaining time in hh:mm:ss =   15 h 09 m 34 s
 Estimated total run time in seconds =    55899.1338225476     
 Estimated total run time in hh:mm:ss =   15 h 31 m 39 s
 We have done    2.369668     % of that
 The run will finish approximately on (in local time): Wed Feb 02, 2022 07:02
 
 
 Total number of receivers saved is           22  out of           22
 
 
 Writing the seismograms by master proc alone took    13.5600980296731      
  seconds
 
 
 Total number of receivers saved is           22  out of           22
 
 
 Writing the seismograms by master proc alone took    12.7888913732022      
  seconds
 
 
 Total number of receivers saved is           22  out of           22
 
 
 Writing the seismograms by master proc alone took    13.0073429364711      
  seconds
 
 
  Total number of time steps written:         2000
 
 Time step #         3000
 Time:    10.65722      minutes
 Max norm displacement vector U in solid in all slices (m) = 
   5.47693030972439     
 Max non-dimensional potential Ufluid in fluid in all slices = 
  1.154241845870967E-011
 Elapsed time in seconds =    2008.55542073399     
 Elapsed time in hh:mm:ss =    0 h 33 m 28 s
 Mean elapsed time per time step in seconds =   0.669518473577996     
 Time steps done =         3000  out of        84400
 Time steps remaining =        81400
 Estimated remaining time in seconds =    54498.8037492489     
 Estimated remaining time in hh:mm:ss =   15 h 08 m 18 s
 Estimated total run time in seconds =    56507.3591699829     
 Estimated total run time in hh:mm:ss =   15 h 41 m 47 s
 We have done    3.554502     % of that
 The run will finish approximately on (in local time): Wed Feb 02, 2022 07:11
 
 
 Total number of receivers saved is           22  out of           22
 
 
 Writing the seismograms by master proc alone took    12.4379563443363      
  seconds
 
 
 Total number of receivers saved is           22  out of           22
 
 
 Writing the seismograms by master proc alone took    13.1567625030875      
  seconds
 
 
 Total number of receivers saved is           22  out of           22
 
 
 Writing the seismograms by master proc alone took    12.9765943083912      
  seconds
 
 
  Total number of time steps written:         3000
 
 Time step #         4000
 Time:    14.21972      minutes
 Max norm displacement vector U in solid in all slices (m) = 
   5.47680686699945     
 Max non-dimensional potential Ufluid in fluid in all slices = 
  1.173303333943481E-011
 Elapsed time in seconds =    2691.43931386061     
 Elapsed time in hh:mm:ss =    0 h 44 m 51 s
 Mean elapsed time per time step in seconds =   0.672859828465153     
 Time steps done =         4000  out of        84400
 Time steps remaining =        80400
 Estimated remaining time in seconds =    54097.9302085983     
 Estimated remaining time in hh:mm:ss =   15 h 01 m 37 s
 Estimated total run time in seconds =    56789.3695224589     
 Estimated total run time in hh:mm:ss =   15 h 46 m 29 s
 We have done    4.739336     % of that
 The run will finish approximately on (in local time): Wed Feb 02, 2022 07:17
 
 
 Total number of receivers saved is           22  out of           22
 
 
 Writing the seismograms by master proc alone took    20.2508402112871      
  seconds
 
 
 Total number of receivers saved is           22  out of           22
 
 
 Writing the seismograms by master proc alone took    17.6136750485748      
  seconds
 
 
 Total number of receivers saved is           22  out of           22
 
 
 Writing the seismograms by master proc alone took    21.5121421404183      
  seconds
 
 
  Total number of time steps written:         4000
 
 Time step #         5000
 Time:    17.78222      minutes
 Max norm displacement vector U in solid in all slices (m) = 
   5.46677005007339     
 Max non-dimensional potential Ufluid in fluid in all slices = 
  1.340391770801204E-011
 Elapsed time in seconds =    3394.08830733970     
 Elapsed time in hh:mm:ss =    0 h 56 m 34 s
 Mean elapsed time per time step in seconds =   0.678817661467940     
 Time steps done =         5000  out of        84400
 Time steps remaining =        79400
 Estimated remaining time in seconds =    53898.1223205544     
 Estimated remaining time in hh:mm:ss =   14 h 58 m 18 s
 Estimated total run time in seconds =    57292.2106278941     
 Estimated total run time in hh:mm:ss =   15 h 54 m 52 s
 We have done    5.924170     % of that
 The run will finish approximately on (in local time): Wed Feb 02, 2022 07:24
 
 
 Total number of receivers saved is           22  out of           22
 
 
 Writing the seismograms by master proc alone took    19.7522065341473      
  seconds
 
 
 Total number of receivers saved is           22  out of           22
 
 
 Writing the seismograms by master proc alone took    13.1259967871010      
  seconds
 
 
 Total number of receivers saved is           22  out of           22
 
 
 Writing the seismograms by master proc alone took    18.0981694087386      
  seconds
 
 
  Total number of time steps written:         5000
 
 Time step #         6000
 Time:    21.34472      minutes
 Max norm displacement vector U in solid in all slices (m) = 
   5.47867934842843     
 Max non-dimensional potential Ufluid in fluid in all slices = 
  1.394546582575122E-011
 Elapsed time in seconds =    4089.19041415863     
 Elapsed time in hh:mm:ss =    1 h 08 m 09 s
 Mean elapsed time per time step in seconds =   0.681531735693105     
 Time steps done =         6000  out of        84400
 Time steps remaining =        78400
 Estimated remaining time in seconds =    53432.0880783394     
 Estimated remaining time in hh:mm:ss =   14 h 50 m 32 s
 Estimated total run time in seconds =    57521.2784924980     
 Estimated total run time in hh:mm:ss =   15 h 58 m 41 s
 We have done    7.109005     % of that
 The run will finish approximately on (in local time): Wed Feb 02, 2022 07:29
 
 
 Total number of receivers saved is           22  out of           22
 
 
 Writing the seismograms by master proc alone took    15.4043528139591      
  seconds
 
 
 Total number of receivers saved is           22  out of           22
 
 
 Writing the seismograms by master proc alone took    17.3744862787426      
  seconds
 
 
 Total number of receivers saved is           22  out of           22
 
 
 Writing the seismograms by master proc alone took    13.7734000682831      
  seconds
 
 
  Total number of time steps written:         6000
 
 Time step #         7000
 Time:    24.90722      minutes
 Max norm displacement vector U in solid in all slices (m) = 
   5.47430251322937     
 Max non-dimensional potential Ufluid in fluid in all slices = 
  1.316155829960811E-011
 Elapsed time in seconds =    4780.28263585828     
 Elapsed time in hh:mm:ss =    1 h 19 m 40 s
 Mean elapsed time per time step in seconds =   0.682897519408326     
 Time steps done =         7000  out of        84400
 Time steps remaining =        77400
 Estimated remaining time in seconds =    52856.2680022044     
 Estimated remaining time in hh:mm:ss =   14 h 40 m 56 s
 Estimated total run time in seconds =    57636.5506380627     
 Estimated total run time in hh:mm:ss =   16 h 00 m 36 s
 We have done    8.293839     % of that
 The run will finish approximately on (in local time): Wed Feb 02, 2022 07:30
 
 
 Total number of receivers saved is           22  out of           22
 
 
 Writing the seismograms by master proc alone took    12.8187451325357      
  seconds
 
 
 Total number of receivers saved is           22  out of           22
 
 
 Writing the seismograms by master proc alone took    17.1044722609222      
  seconds
 
 
 Total number of receivers saved is           22  out of           22
 
 
 Writing the seismograms by master proc alone took    18.9621621295810      
  seconds
 
 
  Total number of time steps written:         7000
 
 Time step #         8000
 Time:    28.46972      minutes
 Max norm displacement vector U in solid in all slices (m) = 
   5.47485466160876     
 Max non-dimensional potential Ufluid in fluid in all slices = 
  1.415084746607664E-011
 Elapsed time in seconds =    5473.43934023753     
 Elapsed time in hh:mm:ss =    1 h 31 m 13 s
 Mean elapsed time per time step in seconds =   0.684179917529691     
 Time steps done =         8000  out of        84400
 Time steps remaining =        76400
 Estimated remaining time in seconds =    52271.3456992684     
 Estimated remaining time in hh:mm:ss =   14 h 31 m 11 s
 Estimated total run time in seconds =    57744.7850395059     
 Estimated total run time in hh:mm:ss =   16 h 02 m 24 s
 We have done    9.478673     % of that
 The run will finish approximately on (in local time): Wed Feb 02, 2022 07:32
 
 
 Total number of receivers saved is           22  out of           22
 
 
 Writing the seismograms by master proc alone took    22.0785107407719      
  seconds
 
 
 Total number of receivers saved is           22  out of           22
 
 
 Writing the seismograms by master proc alone took    18.5054767839611      
  seconds
 
 
 Total number of receivers saved is           22  out of           22
 
 
 Writing the seismograms by master proc alone took    17.0156062617898      
  seconds
 
 
  Total number of time steps written:         8000
 
 Time step #         9000
 Time:    32.03222      minutes
 Max norm displacement vector U in solid in all slices (m) = 
   5.47050685448162     
 Max non-dimensional potential Ufluid in fluid in all slices = 
  1.406919762270070E-011
 Elapsed time in seconds =    6175.09163090587     
 Elapsed time in hh:mm:ss =    1 h 42 m 55 s
 Mean elapsed time per time step in seconds =   0.686121292322874     
 Time steps done =         9000  out of        84400
 Time steps remaining =        75400
 Estimated remaining time in seconds =    51733.5454411447     
 Estimated remaining time in hh:mm:ss =   14 h 22 m 13 s
 Estimated total run time in seconds =    57908.6370720506     
 Estimated total run time in hh:mm:ss =   16 h 05 m 08 s
 We have done    10.66351     % of that
 The run will finish approximately on (in local time): Wed Feb 02, 2022 07:35
 
 
 Total number of receivers saved is           22  out of           22
 
 
 Writing the seismograms by master proc alone took    17.4984844587743      
  seconds
 
 
 Total number of receivers saved is           22  out of           22
 
 
 Writing the seismograms by master proc alone took    13.2776238657534      
  seconds
 
 
 Total number of receivers saved is           22  out of           22
 
 
 Writing the seismograms by master proc alone took    18.3833410199732      
  seconds
 
 
  Total number of time steps written:         9000
 
 Time step #        10000
 Time:    35.59472      minutes
 Max norm displacement vector U in solid in all slices (m) = 
   5.47237887955721     
 Max non-dimensional potential Ufluid in fluid in all slices = 
  1.429481156195166E-011
 Elapsed time in seconds =    6868.42815628089     
 Elapsed time in hh:mm:ss =    1 h 54 m 28 s
 Mean elapsed time per time step in seconds =   0.686842815628089     
 Time steps done =        10000  out of        84400
 Time steps remaining =        74400
 Estimated remaining time in seconds =    51101.1054827298     
 Estimated remaining time in hh:mm:ss =   14 h 11 m 41 s
 Estimated total run time in seconds =    57969.5336390107     
 Estimated total run time in hh:mm:ss =   16 h 06 m 09 s
 We have done    11.84834     % of that
 The run will finish approximately on (in local time): Wed Feb 02, 2022 07:36
 
 
 Total number of receivers saved is           22  out of           22
 
 
 Writing the seismograms by master proc alone took    25.0531162917614      
  seconds
 
 
 Total number of receivers saved is           22  out of           22
 
 
 Writing the seismograms by master proc alone took    18.3954416867346      
  seconds
 
 
 Total number of receivers saved is           22  out of           22
 
 
 Writing the seismograms by master proc alone took    17.9055440034717      
  seconds
 
 
  Total number of time steps written:        10000
 
 Time step #        11000
 Time:    39.15722      minutes
 Max norm displacement vector U in solid in all slices (m) = 
   5.47121456344697     
 Max non-dimensional potential Ufluid in fluid in all slices = 
  1.472750148610720E-011
 Elapsed time in seconds =    7574.09704442695     
 Elapsed time in hh:mm:ss =    2 h 06 m 14 s
 Mean elapsed time per time step in seconds =   0.688554276766086     
 Time steps done =        11000  out of        84400
 Time steps remaining =        73400
 Estimated remaining time in seconds =    50539.8839146307     
 Estimated remaining time in hh:mm:ss =   14 h 02 m 19 s
 Estimated total run time in seconds =    58113.9809590577     
 Estimated total run time in hh:mm:ss =   16 h 08 m 33 s
 We have done    13.03318     % of that
 The run will finish approximately on (in local time): Wed Feb 02, 2022 07:38
 
 
 Total number of receivers saved is           22  out of           22
 
 
 Writing the seismograms by master proc alone took    19.1394151616842      
  seconds
 
 
 Total number of receivers saved is           22  out of           22
 
 
 Writing the seismograms by master proc alone took    22.4138997942209      
  seconds
 
 
 Total number of receivers saved is           22  out of           22
 
 
 Writing the seismograms by master proc alone took    22.9458633400500      
  seconds
 
 
  Total number of time steps written:        11000
 
 Time step #        12000
 Time:    42.71972      minutes
 Max norm displacement vector U in solid in all slices (m) = 
   5.47277069764657     
 Max non-dimensional potential Ufluid in fluid in all slices = 
  1.670963254557475E-011
 Elapsed time in seconds =    8283.17054385506     
 Elapsed time in hh:mm:ss =    2 h 18 m 03 s
 Mean elapsed time per time step in seconds =   0.690264211987921     
 Time steps done =        12000  out of        84400
 Time steps remaining =        72400
 Estimated remaining time in seconds =    49975.1289479255     
 Estimated remaining time in hh:mm:ss =   13 h 52 m 55 s
 Estimated total run time in seconds =    58258.2994917806     
 Estimated total run time in hh:mm:ss =   16 h 10 m 58 s
 We have done    14.21801     % of that
 The run will finish approximately on (in local time): Wed Feb 02, 2022 07:41
 
 
 Total number of receivers saved is           22  out of           22
 
 
 Writing the seismograms by master proc alone took    22.4657568931580      
  seconds
 
 
 Total number of receivers saved is           22  out of           22
 
 
 Writing the seismograms by master proc alone took    16.8229021392763      
  seconds
 
 
 Total number of receivers saved is           22  out of           22
 
 
 Writing the seismograms by master proc alone took    15.0419863145798      
  seconds
 
 
  Total number of time steps written:        12000
 
 Time step #        13000
 Time:    46.28222      minutes
 Max norm displacement vector U in solid in all slices (m) = 
   5.47131369224616     
 Max non-dimensional potential Ufluid in fluid in all slices = 
  1.579767968807420E-011
 Elapsed time in seconds =    8981.77710191160     
 Elapsed time in hh:mm:ss =    2 h 29 m 41 s
 Mean elapsed time per time step in seconds =   0.690905930916277     
 Time steps done =        13000  out of        84400
 Time steps remaining =        71400
 Estimated remaining time in seconds =    49330.6834674222     
 Estimated remaining time in hh:mm:ss =   13 h 42 m 10 s
 Estimated total run time in seconds =    58312.4605693338     
 Estimated total run time in hh:mm:ss =   16 h 11 m 52 s
 We have done    15.40284     % of that
 The run will finish approximately on (in local time): Wed Feb 02, 2022 07:41
 
 
 Total number of receivers saved is           22  out of           22
 
 
 Writing the seismograms by master proc alone took    21.4913465231657      
  seconds
 
 
 Total number of receivers saved is           22  out of           22
 
 
 Writing the seismograms by master proc alone took    19.4423700720072      
  seconds
 
 
 Total number of receivers saved is           22  out of           22
 
 
 Writing the seismograms by master proc alone took    20.6458706725389      
  seconds
 
 
  Total number of time steps written:        13000
 
 Time step #        14000
 Time:    49.84472      minutes
 Max norm displacement vector U in solid in all slices (m) = 
   5.46846369574579     
 Max non-dimensional potential Ufluid in fluid in all slices = 
  1.712495745534013E-011
 Elapsed time in seconds =    9687.08072260767     
 Elapsed time in hh:mm:ss =    2 h 41 m 27 s
 Mean elapsed time per time step in seconds =   0.691934337329119     
 Time steps done =        14000  out of        84400
 Time steps remaining =        70400
 Estimated remaining time in seconds =    48712.1773479700     
 Estimated remaining time in hh:mm:ss =   13 h 31 m 52 s
 Estimated total run time in seconds =    58399.2580705777     
 Estimated total run time in hh:mm:ss =   16 h 13 m 19 s
 We have done    16.58768     % of that
 The run will finish approximately on (in local time): Wed Feb 02, 2022 07:43
 
 
 Total number of receivers saved is           22  out of           22
 
 
 Writing the seismograms by master proc alone took    17.5366558600217      
  seconds
 
 
 Total number of receivers saved is           22  out of           22
 
 
 Writing the seismograms by master proc alone took    19.2608837485313      
  seconds
 
 
 Total number of receivers saved is           22  out of           22
 
 
 Writing the seismograms by master proc alone took    20.1350817959756      
  seconds
 
 
  Total number of time steps written:        14000
 
 Time step #        15000
 Time:    53.40722      minutes
 Max norm displacement vector U in solid in all slices (m) = 
   5.47353538173807     
 Max non-dimensional potential Ufluid in fluid in all slices = 
  1.836287075358441E-011
 Elapsed time in seconds =    10387.4961528294     
 Elapsed time in hh:mm:ss =    2 h 53 m 07 s
 Mean elapsed time per time step in seconds =   0.692499743521959     
 Time steps done =        15000  out of        84400
 Time steps remaining =        69400
 Estimated remaining time in seconds =    48059.4822004239     
 Estimated remaining time in hh:mm:ss =   13 h 20 m 59 s
 Estimated total run time in seconds =    58446.9783532533     
 Estimated total run time in hh:mm:ss =   16 h 14 m 06 s
 We have done    17.77251     % of that
 The run will finish approximately on (in local time): Wed Feb 02, 2022 07:44
 
 
 Total number of receivers saved is           22  out of           22
 
 
 Writing the seismograms by master proc alone took    18.0002712458372      
  seconds
 
 
 Total number of receivers saved is           22  out of           22
 
 
 Writing the seismograms by master proc alone took    23.2603533696383      
  seconds
 
 
 Total number of receivers saved is           22  out of           22
 
 
 Writing the seismograms by master proc alone took    15.5619482751936      
  seconds
 
 
  Total number of time steps written:        15000
 
 Time step #        16000
 Time:    56.96972      minutes
 Max norm displacement vector U in solid in all slices (m) = 
   5.47298018206281     
 Max non-dimensional potential Ufluid in fluid in all slices = 
  2.018136881684783E-011
 Elapsed time in seconds =    11088.0145089943     
 Elapsed time in hh:mm:ss =    3 h 04 m 48 s
 Mean elapsed time per time step in seconds =   0.693000906812144     
 Time steps done =        16000  out of        84400
 Time steps remaining =        68400
 Estimated remaining time in seconds =    47401.2620259506     
 Estimated remaining time in hh:mm:ss =   13 h 10 m 01 s
 Estimated total run time in seconds =    58489.2765349449     
 Estimated total run time in hh:mm:ss =   16 h 14 m 49 s
 We have done    18.95735     % of that
 The run will finish approximately on (in local time): Wed Feb 02, 2022 07:44
 
 
 Total number of receivers saved is           22  out of           22
 
 
 Writing the seismograms by master proc alone took    18.4823977444321      
  seconds
 
 
 Total number of receivers saved is           22  out of           22
 
 
 Writing the seismograms by master proc alone took    15.3097062446177      
  seconds
 
 
 Total number of receivers saved is           22  out of           22
 
 
 Writing the seismograms by master proc alone took    18.9048704933375      
  seconds
 
 
  Total number of time steps written:        16000
 
 Time step #        17000
 Time:    60.53222      minutes
 Max norm displacement vector U in solid in all slices (m) = 
   5.47469669434095     
 Max non-dimensional potential Ufluid in fluid in all slices = 
  2.210254873409261E-011
 Elapsed time in seconds =    11784.9432150088     
 Elapsed time in hh:mm:ss =    3 h 16 m 24 s
 Mean elapsed time per time step in seconds =   0.693231953824049     
 Time steps done =        17000  out of        84400
 Time steps remaining =        67400
 Estimated remaining time in seconds =    46723.8336877409     
 Estimated remaining time in hh:mm:ss =   12 h 58 m 43 s
 Estimated total run time in seconds =    58508.7769027497     
 Estimated total run time in hh:mm:ss =   16 h 15 m 08 s
 We have done    20.14218     % of that
 The run will finish approximately on (in local time): Wed Feb 02, 2022 07:45
 
 
 Total number of receivers saved is           22  out of           22
 
 
 Writing the seismograms by master proc alone took    12.0549647882581      
  seconds
 
 
 Total number of receivers saved is           22  out of           22
 
 
 Writing the seismograms by master proc alone took    12.4805348124355      
  seconds
 
 
 Total number of receivers saved is           22  out of           22
 
 
 Writing the seismograms by master proc alone took    10.0454296693206      
  seconds
 
 
  Total number of time steps written:        17000
 
 Time step #        18000
 Time:    64.09472      minutes
 Max norm displacement vector U in solid in all slices (m) = 
   5.47574764129754     
 Max non-dimensional potential Ufluid in fluid in all slices = 
  2.294672755776283E-011
 Elapsed time in seconds =    12463.4123893939     
 Elapsed time in hh:mm:ss =    3 h 27 m 43 s
 Mean elapsed time per time step in seconds =   0.692411799410772     
 Time steps done =        18000  out of        84400
 Time steps remaining =        66400
 Estimated remaining time in seconds =    45976.1434808753     
 Estimated remaining time in hh:mm:ss =   12 h 46 m 16 s
 Estimated total run time in seconds =    58439.5558702692     
 Estimated total run time in hh:mm:ss =   16 h 13 m 59 s
 We have done    21.32701     % of that
 The run will finish approximately on (in local time): Wed Feb 02, 2022 07:43
 
 
 Total number of receivers saved is           22  out of           22
 
 
 Writing the seismograms by master proc alone took    13.2390649430454      
  seconds
 
 
 Total number of receivers saved is           22  out of           22
 
 
 Writing the seismograms by master proc alone took    12.0688323359936      
  seconds
 
 
 Total number of receivers saved is           22  out of           22
 
 
 Writing the seismograms by master proc alone took    13.6019700337201      
  seconds
 
 
  Total number of time steps written:        18000
 
 Time step #        19000
 Time:    67.65722      minutes
 Max norm displacement vector U in solid in all slices (m) = 
   5.47472461153660     
 Max non-dimensional potential Ufluid in fluid in all slices = 
  2.374146110875934E-011
 Elapsed time in seconds =    13145.7558870334     
 Elapsed time in hh:mm:ss =    3 h 39 m 05 s
 Mean elapsed time per time step in seconds =   0.691881888791232     
 Time steps done =        19000  out of        84400
 Time steps remaining =        65400
 Estimated remaining time in seconds =    45249.0755269466     
 Estimated remaining time in hh:mm:ss =   12 h 34 m 09 s
 Estimated total run time in seconds =    58394.8314139800     
 Estimated total run time in hh:mm:ss =   16 h 13 m 14 s
 We have done    22.51185     % of that
 The run will finish approximately on (in local time): Wed Feb 02, 2022 07:43
 
 
 Total number of receivers saved is           22  out of           22
 
 
 Writing the seismograms by master proc alone took    13.5271714553237      
  seconds
 
 
 Total number of receivers saved is           22  out of           22
 
 
 Writing the seismograms by master proc alone took    11.1231781616807      
  seconds
 
 
 Total number of receivers saved is           22  out of           22
 
 
 Writing the seismograms by master proc alone took    13.5014195982367      
  seconds
 
 
  Total number of time steps written:        19000
 
 Time step #        20000
 Time:    71.21972      minutes
 Max norm displacement vector U in solid in all slices (m) = 
   5.47696421221995     
 Max non-dimensional potential Ufluid in fluid in all slices = 
  2.576001642526876E-011
 Elapsed time in seconds =    13827.8093415927     
 Elapsed time in hh:mm:ss =    3 h 50 m 27 s
 Mean elapsed time per time step in seconds =   0.691390467079636     
 Time steps done =        20000  out of        84400
 Time steps remaining =        64400
 Estimated remaining time in seconds =    44525.5460799285     
 Estimated remaining time in hh:mm:ss =   12 h 22 m 05 s
 Estimated total run time in seconds =    58353.3554215212     
 Estimated total run time in hh:mm:ss =   16 h 12 m 33 s
 We have done    23.69668     % of that
 The run will finish approximately on (in local time): Wed Feb 02, 2022 07:42
 
 
 Total number of receivers saved is           22  out of           22
 
 
 Writing the seismograms by master proc alone took    13.3780471365899      
  seconds
 
 
 Total number of receivers saved is           22  out of           22
 
 
 Writing the seismograms by master proc alone took    11.5815559998155      
  seconds
 
 
 Total number of receivers saved is           22  out of           22
 
 
 Writing the seismograms by master proc alone took    11.8588968049735      
  seconds
 
 
  Total number of time steps written:        20000
 
 Time step #        21000
 Time:    74.78222      minutes
 Max norm displacement vector U in solid in all slices (m) = 
   5.47454983898555     
 Max non-dimensional potential Ufluid in fluid in all slices = 
  2.851005180526716E-011
 Elapsed time in seconds =    14507.7156186849     
 Elapsed time in hh:mm:ss =    4 h 01 m 47 s
 Mean elapsed time per time step in seconds =   0.690843600889757     
 Time steps done =        21000  out of        84400
 Time steps remaining =        63400
 Estimated remaining time in seconds =    43799.4842964106     
 Estimated remaining time in hh:mm:ss =   12 h 09 m 59 s
 Estimated total run time in seconds =    58307.1999150955     
 Estimated total run time in hh:mm:ss =   16 h 11 m 47 s
 We have done    24.88152     % of that
 The run will finish approximately on (in local time): Wed Feb 02, 2022 07:41
 
 
 Total number of receivers saved is           22  out of           22
 
 
 Writing the seismograms by master proc alone took    17.8825350627303      
  seconds
 
 
 Total number of receivers saved is           22  out of           22
 
 
 Writing the seismograms by master proc alone took    14.3997514881194      
  seconds
 
 
 Total number of receivers saved is           22  out of           22
 
 
 Writing the seismograms by master proc alone took    14.9116571750492      
  seconds
 
 
  Total number of time steps written:        21000
 
 Time step #        22000
 Time:    78.34472      minutes
 Max norm displacement vector U in solid in all slices (m) = 
   5.47386065599961     
 Max non-dimensional potential Ufluid in fluid in all slices = 
  2.572060593932380E-011
 Elapsed time in seconds =    15199.1639756244     
 Elapsed time in hh:mm:ss =    4 h 13 m 19 s
 Mean elapsed time per time step in seconds =   0.690871089801108     
 Time steps done =        22000  out of        84400
 Time steps remaining =        62400
 Estimated remaining time in seconds =    43110.3560035891     
 Estimated remaining time in hh:mm:ss =   11 h 58 m 30 s
 Estimated total run time in seconds =    58309.5199792135     
 Estimated total run time in hh:mm:ss =   16 h 11 m 49 s
 We have done    26.06635     % of that
 The run will finish approximately on (in local time): Wed Feb 02, 2022 07:42
 
 
 Total number of receivers saved is           22  out of           22
 
 
 Writing the seismograms by master proc alone took    12.1846786029637      
  seconds
 
 
 Total number of receivers saved is           22  out of           22
 
 
 Writing the seismograms by master proc alone took    13.8836434371769      
  seconds
 
 
 Total number of receivers saved is           22  out of           22
 
 
 Writing the seismograms by master proc alone took    15.4948545377702      
  seconds
 
 
  Total number of time steps written:        22000
 
 Time step #        23000
 Time:    81.90722      minutes
 Max norm displacement vector U in solid in all slices (m) = 
   5.47417983383701     
 Max non-dimensional potential Ufluid in fluid in all slices = 
  2.735267274843652E-011
 Elapsed time in seconds =    15884.2035723198     
 Elapsed time in hh:mm:ss =    4 h 24 m 44 s
 Mean elapsed time per time step in seconds =   0.690617546622601     
 Time steps done =        23000  out of        84400
 Time steps remaining =        61400
 Estimated remaining time in seconds =    42403.9173626277     
 Estimated remaining time in hh:mm:ss =   11 h 46 m 43 s
 Estimated total run time in seconds =    58288.1209349475     
 Estimated total run time in hh:mm:ss =   16 h 11 m 28 s
 We have done    27.25118     % of that
 The run will finish approximately on (in local time): Wed Feb 02, 2022 07:41
 
 
 Total number of receivers saved is           22  out of           22
 
 
 Writing the seismograms by master proc alone took    11.7910245396197      
  seconds
 
 
 Total number of receivers saved is           22  out of           22
 
 
 Writing the seismograms by master proc alone took    11.0185511708260      
  seconds
 
 
 Total number of receivers saved is           22  out of           22
 
 
 Writing the seismograms by master proc alone took    13.3899698834866      
  seconds
 
 
  Total number of time steps written:        23000
 
 Time step #        24000
 Time:    85.46972      minutes
 Max norm displacement vector U in solid in all slices (m) = 
   5.47447350902721     
 Max non-dimensional potential Ufluid in fluid in all slices = 
  3.114153872605320E-011
 Elapsed time in seconds =    16564.7800891716     
 Elapsed time in hh:mm:ss =    4 h 36 m 04 s
 Mean elapsed time per time step in seconds =   0.690199170382150     
 Time steps done =        24000  out of        84400
 Time steps remaining =        60400
 Estimated remaining time in seconds =    41688.0298910819     
 Estimated remaining time in hh:mm:ss =   11 h 34 m 48 s
 Estimated total run time in seconds =    58252.8099802535     
 Estimated total run time in hh:mm:ss =   16 h 10 m 52 s
 We have done    28.43602     % of that
 The run will finish approximately on (in local time): Wed Feb 02, 2022 07:41
 
 
 Total number of receivers saved is           22  out of           22
 
 
 Writing the seismograms by master proc alone took    21.6176572758704      
  seconds
 
 
 Total number of receivers saved is           22  out of           22
 
 
 Writing the seismograms by master proc alone took    20.7270600255579      
  seconds
 
 
 Total number of receivers saved is           22  out of           22
 
 
 Writing the seismograms by master proc alone took    19.6736049558967      
  seconds
 
 
  Total number of time steps written:        24000
 
 Time step #        25000
 Time:    89.03222      minutes
 Max norm displacement vector U in solid in all slices (m) = 
   5.47216903528126     
 Max non-dimensional potential Ufluid in fluid in all slices = 
  3.760070117362853E-011
 Elapsed time in seconds =    17271.3191676512     
 Elapsed time in hh:mm:ss =    4 h 47 m 51 s
 Mean elapsed time per time step in seconds =   0.690852766706049     
 Time steps done =        25000  out of        84400
 Time steps remaining =        59400
 Estimated remaining time in seconds =    41036.6543423393     
 Estimated remaining time in hh:mm:ss =   11 h 23 m 56 s
 Estimated total run time in seconds =    58307.9735099906     
 Estimated total run time in hh:mm:ss =   16 h 11 m 47 s
 We have done    29.62085     % of that
 The run will finish approximately on (in local time): Wed Feb 02, 2022 07:42
 
 
 Total number of receivers saved is           22  out of           22
 
 
 Writing the seismograms by master proc alone took    12.0993128195405      
  seconds
 
 
 Total number of receivers saved is           22  out of           22
 
 
 Writing the seismograms by master proc alone took    14.0439938530326      
  seconds
 
 
 Total number of receivers saved is           22  out of           22
 
 
 Writing the seismograms by master proc alone took    12.8075224030763      
  seconds
 
 
  Total number of time steps written:        25000
 
 Time step #        26000
 Time:    92.59472      minutes
 Max norm displacement vector U in solid in all slices (m) = 
   5.47222557904983     
 Max non-dimensional potential Ufluid in fluid in all slices = 
  4.118909197174604E-011
 Elapsed time in seconds =    17953.7435085867     
 Elapsed time in hh:mm:ss =    4 h 59 m 13 s
 Mean elapsed time per time step in seconds =   0.690528596484102     
 Time steps done =        26000  out of        84400
 Time steps remaining =        58400
 Estimated remaining time in seconds =    40326.8700346716     
 Estimated remaining time in hh:mm:ss =   11 h 12 m 06 s
 Estimated total run time in seconds =    58280.6135432582     
 Estimated total run time in hh:mm:ss =   16 h 11 m 20 s
 We have done    30.80569     % of that
 The run will finish approximately on (in local time): Wed Feb 02, 2022 07:41
 
 
 Total number of receivers saved is           22  out of           22
 
 
 Writing the seismograms by master proc alone took    10.8020128756762      
  seconds
 
 
 Total number of receivers saved is           22  out of           22
 
 
 Writing the seismograms by master proc alone took    15.5241968240589      
  seconds
 
 
 Total number of receivers saved is           22  out of           22
 
 
 Writing the seismograms by master proc alone took    13.2265692483634      
  seconds
 
 
  Total number of time steps written:        26000
 
 Time step #        27000
 Time:    96.15722      minutes
 Max norm displacement vector U in solid in all slices (m) = 
   5.46872957727863     
 Max non-dimensional potential Ufluid in fluid in all slices = 
  4.435306845832166E-011
 Elapsed time in seconds =    18637.0865686089     
 Elapsed time in hh:mm:ss =    5 h 10 m 37 s
 Mean elapsed time per time step in seconds =   0.690262465504033     
 Time steps done =        27000  out of        84400
 Time steps remaining =        57400
 Estimated remaining time in seconds =    39621.0655199315     
 Estimated remaining time in hh:mm:ss =   11 h 00 m 21 s
 Estimated total run time in seconds =    58258.1520885404     
 Estimated total run time in hh:mm:ss =   16 h 10 m 58 s
 We have done    31.99052     % of that
 The run will finish approximately on (in local time): Wed Feb 02, 2022 07:40
 
 
 Total number of receivers saved is           22  out of           22
 
 
 Writing the seismograms by master proc alone took    10.5886846818030      
  seconds
 
 
 Total number of receivers saved is           22  out of           22
 
 
 Writing the seismograms by master proc alone took    10.9286068174988      
  seconds
 
 
 Total number of receivers saved is           22  out of           22
 
 
 Writing the seismograms by master proc alone took    8.68843188136816      
  seconds
 
 
  Total number of time steps written:        27000
 
 Time step #        28000
 Time:    99.71972      minutes
 Max norm displacement vector U in solid in all slices (m) = 
   5.47488707201951     
 Max non-dimensional potential Ufluid in fluid in all slices = 
  4.746968888623633E-011
 Elapsed time in seconds =    19311.4167745896     
 Elapsed time in hh:mm:ss =    5 h 21 m 51 s
 Mean elapsed time per time step in seconds =   0.689693456235342     
 Time steps done =        28000  out of        84400
 Time steps remaining =        56400
 Estimated remaining time in seconds =    38898.7109316733     
 Estimated remaining time in hh:mm:ss =   10 h 48 m 18 s
 Estimated total run time in seconds =    58210.1277062628     
 Estimated total run time in hh:mm:ss =   16 h 10 m 10 s
 We have done    33.17535     % of that
 The run will finish approximately on (in local time): Wed Feb 02, 2022 07:40
 
 
 Total number of receivers saved is           22  out of           22
 
 
 Writing the seismograms by master proc alone took    9.50468708574772      
  seconds
 
 
 Total number of receivers saved is           22  out of           22
 
 
 Writing the seismograms by master proc alone took    10.7412679661065      
  seconds
 
 
 Total number of receivers saved is           22  out of           22
 
 
 Writing the seismograms by master proc alone took    10.5679083336145      
  seconds
 
 
  Total number of time steps written:        28000
 
 Time step #        29000
 Time:    103.2822      minutes
 Max norm displacement vector U in solid in all slices (m) = 
   5.47153165887829     
 Max non-dimensional potential Ufluid in fluid in all slices = 
  5.420322878044775E-011
 Elapsed time in seconds =    19986.6460657492     
 Elapsed time in hh:mm:ss =    5 h 33 m 06 s
 Mean elapsed time per time step in seconds =   0.689194691922387     
 Time steps done =        29000  out of        84400
 Time steps remaining =        55400
 Estimated remaining time in seconds =    38181.3859325002     
 Estimated remaining time in hh:mm:ss =   10 h 36 m 21 s
 Estimated total run time in seconds =    58168.0319982495     
 Estimated total run time in hh:mm:ss =   16 h 09 m 28 s
 We have done    34.36019     % of that
 The run will finish approximately on (in local time): Wed Feb 02, 2022 07:39
 
 
 Total number of receivers saved is           22  out of           22
 
 
 Writing the seismograms by master proc alone took    12.0292972885072      
  seconds
 
 
 Total number of receivers saved is           22  out of           22
 
 
 Writing the seismograms by master proc alone took    12.1024358142167      
  seconds
 
 
 Total number of receivers saved is           22  out of           22
 
 
 Writing the seismograms by master proc alone took    14.5663367826492      
  seconds
 
 
  Total number of time steps written:        29000
 
 Time step #        30000
 Time:    106.8447      minutes
 Max norm displacement vector U in solid in all slices (m) = 
   5.46763251920979     
 Max non-dimensional potential Ufluid in fluid in all slices = 
  4.897782352622026E-011
 Elapsed time in seconds =    20669.6080363411     
 Elapsed time in hh:mm:ss =    5 h 44 m 29 s
 Mean elapsed time per time step in seconds =   0.688986934544705     
 Time steps done =        30000  out of        84400
 Time steps remaining =        54400
 Estimated remaining time in seconds =    37480.8892392319     
 Estimated remaining time in hh:mm:ss =   10 h 24 m 40 s
 Estimated total run time in seconds =    58150.4972755731     
 Estimated total run time in hh:mm:ss =   16 h 09 m 10 s
 We have done    35.54502     % of that
 The run will finish approximately on (in local time): Wed Feb 02, 2022 07:39
 
 
 Total number of receivers saved is           22  out of           22
 
 
 Writing the seismograms by master proc alone took    12.2817449886352      
  seconds
 
 
 Total number of receivers saved is           22  out of           22
 
 
 Writing the seismograms by master proc alone took    12.9195643682033      
  seconds
 
 
 Total number of receivers saved is           22  out of           22
 
 
 Writing the seismograms by master proc alone took    9.51916821300983      
  seconds
 
 
  Total number of time steps written:        30000
 
 Time step #        31000
 Time:    110.4072      minutes
 Max norm displacement vector U in solid in all slices (m) = 
   5.47527638356178     
 Max non-dimensional potential Ufluid in fluid in all slices = 
  5.282566679779331E-011
 Elapsed time in seconds =    21347.8405987304     
 Elapsed time in hh:mm:ss =    5 h 55 m 47 s
 Mean elapsed time per time step in seconds =   0.688640019313883     
 Time steps done =        31000  out of        84400
 Time steps remaining =        53400
 Estimated remaining time in seconds =    36773.3770313613     
 Estimated remaining time in hh:mm:ss =   10 h 12 m 53 s
 Estimated total run time in seconds =    58121.2176300917     
 Estimated total run time in hh:mm:ss =   16 h 08 m 41 s
 We have done    36.72986     % of that
 The run will finish approximately on (in local time): Wed Feb 02, 2022 07:38
 
 
 Total number of receivers saved is           22  out of           22
 
 
 Writing the seismograms by master proc alone took    14.6891630943865      
  seconds
 
 
 Total number of receivers saved is           22  out of           22
 
 
 Writing the seismograms by master proc alone took    16.8574919681996      
  seconds
 
 
 Total number of receivers saved is           22  out of           22
 
 
 Writing the seismograms by master proc alone took    14.3207460194826      
  seconds
 
 
  Total number of time steps written:        31000
 
 Time step #        32000
 Time:    113.9697      minutes
 Max norm displacement vector U in solid in all slices (m) = 
   5.46197566473246     
 Max non-dimensional potential Ufluid in fluid in all slices = 
  5.522837499488193E-011
 Elapsed time in seconds =    22037.5875690766     
 Elapsed time in hh:mm:ss =    6 h 07 m 17 s
 Mean elapsed time per time step in seconds =   0.688674611533643     
 Time steps done =        32000  out of        84400
 Time steps remaining =        52400
 Estimated remaining time in seconds =    36086.5496443629     
 Estimated remaining time in hh:mm:ss =   10 h 01 m 26 s
 Estimated total run time in seconds =    58124.1372134394     
 Estimated total run time in hh:mm:ss =   16 h 08 m 44 s
 We have done    37.91469     % of that
 The run will finish approximately on (in local time): Wed Feb 02, 2022 07:38
 
 
 Total number of receivers saved is           22  out of           22
 
 
 Writing the seismograms by master proc alone took    10.9093296229839      
  seconds
 
 
 Total number of receivers saved is           22  out of           22
 
 
 Writing the seismograms by master proc alone took    9.25889127142727      
  seconds
 
 
 Total number of receivers saved is           22  out of           22
 
 
 Writing the seismograms by master proc alone took    7.47278794832528      
  seconds
 
 
  Total number of time steps written:        32000
 
 Time step #        33000
 Time:    117.5322      minutes
 Max norm displacement vector U in solid in all slices (m) = 
   5.46407859174679     
 Max non-dimensional potential Ufluid in fluid in all slices = 
  5.561251144780013E-011
 Elapsed time in seconds =    22709.0886973944     
 Elapsed time in hh:mm:ss =    6 h 18 m 29 s
 Mean elapsed time per time step in seconds =   0.688154202951344     
 Time steps done =        33000  out of        84400
 Time steps remaining =        51400
 Estimated remaining time in seconds =    35371.1260316991     
 Estimated remaining time in hh:mm:ss =    9 h 49 m 31 s
 Estimated total run time in seconds =    58080.2147290934     
 Estimated total run time in hh:mm:ss =   16 h 08 m 00 s
 We have done    39.09953     % of that
 The run will finish approximately on (in local time): Wed Feb 02, 2022 07:38
 
 
 Total number of receivers saved is           22  out of           22
 
 
 Writing the seismograms by master proc alone took    9.78808259963989      
  seconds
 
 
 Total number of receivers saved is           22  out of           22
 
 
 Writing the seismograms by master proc alone took    9.85205521807075      
  seconds
 
 
 Total number of receivers saved is           22  out of           22
 
 
 Writing the seismograms by master proc alone took    8.61983424797654      
  seconds
 
 
  Total number of time steps written:        33000
 
 Time step #        34000
 Time:    121.0947      minutes
 Max norm displacement vector U in solid in all slices (m) = 
   5.47282986910233     
 Max non-dimensional potential Ufluid in fluid in all slices = 
  5.505497869632932E-011
 Elapsed time in seconds =    23380.8316619396     
 Elapsed time in hh:mm:ss =    6 h 29 m 40 s
 Mean elapsed time per time step in seconds =   0.687671519468812     
 Time steps done =        34000  out of        84400
 Time steps remaining =        50400
 Estimated remaining time in seconds =    34658.6445812281     
 Estimated remaining time in hh:mm:ss =    9 h 37 m 38 s
 Estimated total run time in seconds =    58039.4762431678     
 Estimated total run time in hh:mm:ss =   16 h 07 m 19 s
 We have done    40.28436     % of that
 The run will finish approximately on (in local time): Wed Feb 02, 2022 07:37
 
 
 Total number of receivers saved is           22  out of           22
 
 
 Writing the seismograms by master proc alone took    11.0684933867306      
  seconds
 
 
 Total number of receivers saved is           22  out of           22
 
 
 Writing the seismograms by master proc alone took    12.7219420261681      
  seconds
 
 
 Total number of receivers saved is           22  out of           22
 
 
 Writing the seismograms by master proc alone took    11.9555780943483      
  seconds
 
 
  Total number of time steps written:        34000
 
 Time step #        35000
 Time:    124.6572      minutes
 Max norm displacement vector U in solid in all slices (m) = 
   5.47522012511028     
 Max non-dimensional potential Ufluid in fluid in all slices = 
  6.246799555753631E-011
 Elapsed time in seconds =    24060.4814808872     
 Elapsed time in hh:mm:ss =    6 h 41 m 00 s
 Mean elapsed time per time step in seconds =   0.687442328025347     
 Time steps done =        35000  out of        84400
 Time steps remaining =        49400
 Estimated remaining time in seconds =    33959.6510044522     
 Estimated remaining time in hh:mm:ss =    9 h 25 m 59 s
 Estimated total run time in seconds =    58020.1324853393     
 Estimated total run time in hh:mm:ss =   16 h 07 m 00 s
 We have done    41.46919     % of that
 The run will finish approximately on (in local time): Wed Feb 02, 2022 07:37
 
 
 Total number of receivers saved is           22  out of           22
 
 
 Writing the seismograms by master proc alone took    9.00006641075015      
  seconds
 
 
 Total number of receivers saved is           22  out of           22
 
 
 Writing the seismograms by master proc alone took    8.63962556608021      
  seconds
 
 
 Total number of receivers saved is           22  out of           22
 
 
 Writing the seismograms by master proc alone took    9.63339416496456      
  seconds
 
 
  Total number of time steps written:        35000
 
 Time step #        36000
 Time:    128.2197      minutes
 Max norm displacement vector U in solid in all slices (m) = 
   5.47746129802252     
 Max non-dimensional potential Ufluid in fluid in all slices = 
  6.101439512827391E-011
 Elapsed time in seconds =    24730.4604570419     
 Elapsed time in hh:mm:ss =    6 h 52 m 10 s
 Mean elapsed time per time step in seconds =   0.686957234917829     
 Time steps done =        36000  out of        84400
 Time steps remaining =        48400
 Estimated remaining time in seconds =    33248.7301700229     
 Estimated remaining time in hh:mm:ss =    9 h 14 m 08 s
 Estimated total run time in seconds =    57979.1906270648     
 Estimated total run time in hh:mm:ss =   16 h 06 m 19 s
 We have done    42.65403     % of that
 The run will finish approximately on (in local time): Wed Feb 02, 2022 07:36
 
 
 Total number of receivers saved is           22  out of           22
 
 
 Writing the seismograms by master proc alone took    12.2846668232232      
  seconds
 
 
 Total number of receivers saved is           22  out of           22
 
 
 Writing the seismograms by master proc alone took    9.78301809169352      
  seconds
 
 
 Total number of receivers saved is           22  out of           22
 
 
 Writing the seismograms by master proc alone took    10.3044053707272      
  seconds
 
 
  Total number of time steps written:        36000
 
 Time step #        37000
 Time:    131.7822      minutes
 Max norm displacement vector U in solid in all slices (m) = 
   5.47630450016855     
 Max non-dimensional potential Ufluid in fluid in all slices = 
  6.175107717511747E-011
 Elapsed time in seconds =    25405.8780464996     
 Elapsed time in hh:mm:ss =    7 h 03 m 25 s
 Mean elapsed time per time step in seconds =   0.686645352608096     
 Time steps done =        37000  out of        84400
 Time steps remaining =        47400
 Estimated remaining time in seconds =    32546.9897136238     
 Estimated remaining time in hh:mm:ss =    9 h 02 m 26 s
 Estimated total run time in seconds =    57952.8677601233     
 Estimated total run time in hh:mm:ss =   16 h 05 m 52 s
 We have done    43.83886     % of that
 The run will finish approximately on (in local time): Wed Feb 02, 2022 07:35
 
 
 Total number of receivers saved is           22  out of           22
 
 
 Writing the seismograms by master proc alone took    8.25995343737304      
  seconds
 
 
 Total number of receivers saved is           22  out of           22
 
 
 Writing the seismograms by master proc alone took    10.8399428762496      
  seconds
 
 
 Total number of receivers saved is           22  out of           22
 
 
 Writing the seismograms by master proc alone took    9.63852475397289      
  seconds
 
 
  Total number of time steps written:        37000
 
 Time step #        38000
 Time:    135.3447      minutes
 Max norm displacement vector U in solid in all slices (m) = 
   5.47164785652405     
 Max non-dimensional potential Ufluid in fluid in all slices = 
  7.003074058065550E-011
 Elapsed time in seconds =    26078.7277046237     
 Elapsed time in hh:mm:ss =    7 h 14 m 38 s
 Mean elapsed time per time step in seconds =   0.686282308016414     
 Time steps done =        38000  out of        84400
 Time steps remaining =        46400
 Estimated remaining time in seconds =    31843.4990919616     
 Estimated remaining time in hh:mm:ss =    8 h 50 m 43 s
 Estimated total run time in seconds =    57922.2267965853     
 Estimated total run time in hh:mm:ss =   16 h 05 m 22 s
 We have done    45.02370     % of that
 The run will finish approximately on (in local time): Wed Feb 02, 2022 07:35
 
 
 Total number of receivers saved is           22  out of           22
 
 
 Writing the seismograms by master proc alone took    8.09843409247696      
  seconds
 
 
 Total number of receivers saved is           22  out of           22
 
 
 Writing the seismograms by master proc alone took    10.3726914301515      
  seconds
 
 
 Total number of receivers saved is           22  out of           22
 
 
 Writing the seismograms by master proc alone took    10.4723212700337      
  seconds
 
 
  Total number of time steps written:        38000
 
 Time step #        39000
 Time:    138.9072      minutes
 Max norm displacement vector U in solid in all slices (m) = 
   5.45263564740932     
 Max non-dimensional potential Ufluid in fluid in all slices = 
  7.215013901351382E-011
 Elapsed time in seconds =    26751.5783611704     
 Elapsed time in hh:mm:ss =    7 h 25 m 51 s
 Mean elapsed time per time step in seconds =   0.685937906696676     
 Time steps done =        39000  out of        84400
 Time steps remaining =        45400
 Estimated remaining time in seconds =    31141.5809640291     
 Estimated remaining time in hh:mm:ss =    8 h 39 m 01 s
 Estimated total run time in seconds =    57893.1593251995     
 Estimated total run time in hh:mm:ss =   16 h 04 m 53 s
 We have done    46.20853     % of that
 The run will finish approximately on (in local time): Wed Feb 02, 2022 07:35
 
 
 Total number of receivers saved is           22  out of           22
 
 
 Writing the seismograms by master proc alone took    14.2884931024164      
  seconds
 
 
 Total number of receivers saved is           22  out of           22
 
 
 Writing the seismograms by master proc alone took    10.8939174246043      
  seconds
 
 
 Total number of receivers saved is           22  out of           22
 
 
 Writing the seismograms by master proc alone took    13.5260228700936      
  seconds
 
 
  Total number of time steps written:        39000
 
 Time step #        40000
 Time:    142.4697      minutes
 Max norm displacement vector U in solid in all slices (m) = 
   5.44729064654651     
 Max non-dimensional potential Ufluid in fluid in all slices = 
  7.514472344900357E-011
 Elapsed time in seconds =    27434.7039151546     
 Elapsed time in hh:mm:ss =    7 h 37 m 14 s
 Mean elapsed time per time step in seconds =   0.685867597878864     
 Time steps done =        40000  out of        84400
 Time steps remaining =        44400
 Estimated remaining time in seconds =    30452.5213458216     
 Estimated remaining time in hh:mm:ss =    8 h 27 m 32 s
 Estimated total run time in seconds =    57887.2252609761     
 Estimated total run time in hh:mm:ss =   16 h 04 m 47 s
 We have done    47.39336     % of that
 The run will finish approximately on (in local time): Wed Feb 02, 2022 07:35
 
 
 Total number of receivers saved is           22  out of           22
 
 
 Writing the seismograms by master proc alone took    10.0063694827259      
  seconds
 
 
 Total number of receivers saved is           22  out of           22
 
 
 Writing the seismograms by master proc alone took    9.58852121792734      
  seconds
 
 
 Total number of receivers saved is           22  out of           22
 
 
 Writing the seismograms by master proc alone took    9.07522470504045      
  seconds
 
 
  Total number of time steps written:        40000
 
 Time step #        41000
 Time:    146.0322      minutes
 Max norm displacement vector U in solid in all slices (m) = 
   5.47104987934443     
 Max non-dimensional potential Ufluid in fluid in all slices = 
  7.950954581201536E-011
 Elapsed time in seconds =    28107.2837877795     
 Elapsed time in hh:mm:ss =    7 h 48 m 27 s
 Mean elapsed time per time step in seconds =   0.685543507019012     
 Time steps done =        41000  out of        84400
 Time steps remaining =        43400
 Estimated remaining time in seconds =    29752.5882046251     
 Estimated remaining time in hh:mm:ss =    8 h 15 m 52 s
 Estimated total run time in seconds =    57859.8719924046     
 Estimated total run time in hh:mm:ss =   16 h 04 m 19 s
 We have done    48.57820     % of that
 The run will finish approximately on (in local time): Wed Feb 02, 2022 07:34
 
 
 Total number of receivers saved is           22  out of           22
 
 
 Writing the seismograms by master proc alone took    9.84384510293603      
  seconds
 
 
 Total number of receivers saved is           22  out of           22
 
 
 Writing the seismograms by master proc alone took    8.97049454040825      
  seconds
 
 
 Total number of receivers saved is           22  out of           22
 
 
 Writing the seismograms by master proc alone took    13.5539961252362      
  seconds
 
 
  Total number of time steps written:        41000
 
 Time step #        42000
 Time:    149.5947      minutes
 Max norm displacement vector U in solid in all slices (m) = 
   5.47284424899864     
 Max non-dimensional potential Ufluid in fluid in all slices = 
  8.281934289463250E-011
 Elapsed time in seconds =    28783.1357524879     
 Elapsed time in hh:mm:ss =    7 h 59 m 43 s
 Mean elapsed time per time step in seconds =   0.685312756011617     
 Time steps done =        42000  out of        84400
 Time steps remaining =        42400
 Estimated remaining time in seconds =    29057.2608548926     
 Estimated remaining time in hh:mm:ss =    8 h 04 m 17 s
 Estimated total run time in seconds =    57840.3966073805     
 Estimated total run time in hh:mm:ss =   16 h 04 m 00 s
 We have done    49.76303     % of that
 The run will finish approximately on (in local time): Wed Feb 02, 2022 07:33
 
 
 Total number of receivers saved is           22  out of           22
 
 
 Writing the seismograms by master proc alone took    9.90883219428360      
  seconds
 
 
 Total number of receivers saved is           22  out of           22
 
 
 Writing the seismograms by master proc alone took    10.3767766058445      
  seconds
 
 
 Total number of receivers saved is           22  out of           22
 
 
 Writing the seismograms by master proc alone took    10.7184048462659      
  seconds
 
 
  Total number of time steps written:        42000
 
 Time step #        43000
 Time:    153.1572      minutes
 Max norm displacement vector U in solid in all slices (m) = 
   5.47084975729847     
 Max non-dimensional potential Ufluid in fluid in all slices = 
  9.006211533348744E-011
 Elapsed time in seconds =    29457.6299462840     
 Elapsed time in hh:mm:ss =    8 h 10 m 57 s
 Mean elapsed time per time step in seconds =   0.685061161541488     
 Time steps done =        43000  out of        84400
 Time steps remaining =        41400
 Estimated remaining time in seconds =    28361.5320878176     
 Estimated remaining time in hh:mm:ss =    7 h 52 m 41 s
 Estimated total run time in seconds =    57819.1620341016     
 Estimated total run time in hh:mm:ss =   16 h 03 m 39 s
 We have done    50.94787     % of that
 The run will finish approximately on (in local time): Wed Feb 02, 2022 07:34
 
 
 Total number of receivers saved is           22  out of           22
 
 
 Writing the seismograms by master proc alone took    7.83845033310354      
  seconds
 
 
 Total number of receivers saved is           22  out of           22
 
 
 Writing the seismograms by master proc alone took    8.52610914595425      
  seconds
 
 
 Total number of receivers saved is           22  out of           22
 
 
 Writing the seismograms by master proc alone took    8.26286832243204      
  seconds
 
 
  Total number of time steps written:        43000
 
 Time step #        44000
 Time:    156.7197      minutes
 Max norm displacement vector U in solid in all slices (m) = 
   5.47367926578806     
 Max non-dimensional potential Ufluid in fluid in all slices = 
  9.156728219492570E-011
 Elapsed time in seconds =    30126.7744778376     
 Elapsed time in hh:mm:ss =    8 h 22 m 06 s
 Mean elapsed time per time step in seconds =   0.684699419950855     
 Time steps done =        44000  out of        84400
 Time steps remaining =        40400
 Estimated remaining time in seconds =    27661.8565660145     
 Estimated remaining time in hh:mm:ss =    7 h 41 m 01 s
 Estimated total run time in seconds =    57788.6310438521     
 Estimated total run time in hh:mm:ss =   16 h 03 m 08 s
 We have done    52.13270     % of that
 The run will finish approximately on (in local time): Wed Feb 02, 2022 07:33
 
 
 Total number of receivers saved is           22  out of           22
 
 
 Writing the seismograms by master proc alone took    10.2167496141046      
  seconds
 
 
 Total number of receivers saved is           22  out of           22
 
 
 Writing the seismograms by master proc alone took    11.9012712799013      
  seconds
 
 
 Total number of receivers saved is           22  out of           22
 
 
 Writing the seismograms by master proc alone took    10.6584483589977      
  seconds
 
 
  Total number of time steps written:        44000
 
 Time step #        45000
 Time:    160.2822      minutes
 Max norm displacement vector U in solid in all slices (m) = 
   5.47073638345858     
 Max non-dimensional potential Ufluid in fluid in all slices = 
  9.569737810813776E-011
 Elapsed time in seconds =    30804.8002050966     
 Elapsed time in hh:mm:ss =    8 h 33 m 24 s
 Mean elapsed time per time step in seconds =   0.684551115668813     
 Time steps done =        45000  out of        84400
 Time steps remaining =        39400
 Estimated remaining time in seconds =    26971.3139573512     
 Estimated remaining time in hh:mm:ss =    7 h 29 m 31 s
 Estimated total run time in seconds =    57776.1141624478     
 Estimated total run time in hh:mm:ss =   16 h 02 m 56 s
 We have done    53.31754     % of that
 The run will finish approximately on (in local time): Wed Feb 02, 2022 07:33
 
 
 Total number of receivers saved is           22  out of           22
 
 
 Writing the seismograms by master proc alone took    7.72188798710704      
  seconds
 
 
 Total number of receivers saved is           22  out of           22
 
 
 Writing the seismograms by master proc alone took    7.21603205800056      
  seconds
 
 
 Total number of receivers saved is           22  out of           22
 
 
 Writing the seismograms by master proc alone took    8.85587346181273      
  seconds
 
 
  Total number of time steps written:        45000
 
 Time step #        46000
 Time:    163.8447      minutes
 Max norm displacement vector U in solid in all slices (m) = 
   5.47149203211820     
 Max non-dimensional potential Ufluid in fluid in all slices = 
  9.410187588541362E-011
 Elapsed time in seconds =    31472.5311487764     
 Elapsed time in hh:mm:ss =    8 h 44 m 32 s
 Mean elapsed time per time step in seconds =   0.684185459756009     
 Time steps done =        46000  out of        84400
 Time steps remaining =        38400
 Estimated remaining time in seconds =    26272.7216546307     
 Estimated remaining time in hh:mm:ss =    7 h 17 m 52 s
 Estimated total run time in seconds =    57745.2528034072     
 Estimated total run time in hh:mm:ss =   16 h 02 m 25 s
 We have done    54.50237     % of that
 The run will finish approximately on (in local time): Wed Feb 02, 2022 07:32
 
 
 Total number of receivers saved is           22  out of           22
 
 
 Writing the seismograms by master proc alone took    8.02100520022213      
  seconds
 
 
 Total number of receivers saved is           22  out of           22
 
 
 Writing the seismograms by master proc alone took    9.28527925908566      
  seconds
 
 
 Total number of receivers saved is           22  out of           22
 
 
 Writing the seismograms by master proc alone took    9.76856284216046      
  seconds
 
 
  Total number of time steps written:        46000
 
 Time step #        47000
 Time:    167.4072      minutes
 Max norm displacement vector U in solid in all slices (m) = 
   5.47373914171472     
 Max non-dimensional potential Ufluid in fluid in all slices = 
  9.869365918470109E-011
 Elapsed time in seconds =    32142.8524621688     
 Elapsed time in hh:mm:ss =    8 h 55 m 42 s
 Mean elapsed time per time step in seconds =   0.683890477918485     
 Time steps done =        47000  out of        84400
 Time steps remaining =        37400
 Estimated remaining time in seconds =    25577.5038741513     
 Estimated remaining time in hh:mm:ss =    7 h 06 m 17 s
 Estimated total run time in seconds =    57720.3563363201     
 Estimated total run time in hh:mm:ss =   16 h 02 m 00 s
 We have done    55.68720     % of that
 The run will finish approximately on (in local time): Wed Feb 02, 2022 07:31
 
 
 Total number of receivers saved is           22  out of           22
 
 
 Writing the seismograms by master proc alone took    24.4484912417829      
  seconds
 
 
 Total number of receivers saved is           22  out of           22
 
 
 Writing the seismograms by master proc alone took    30.9316605683416      
  seconds
 
 
 Total number of receivers saved is           22  out of           22
 
 
 Writing the seismograms by master proc alone took    24.4422998391092      
  seconds
 
 
  Total number of time steps written:        47000
 
 Time step #        48000
 Time:    170.9697      minutes
 Max norm displacement vector U in solid in all slices (m) = 
   5.47288331644761     
 Max non-dimensional potential Ufluid in fluid in all slices = 
  1.066372421145264E-010
 Elapsed time in seconds =    32866.1935877278     
 Elapsed time in hh:mm:ss =    9 h 07 m 46 s
 Mean elapsed time per time step in seconds =   0.684712366410997     
 Time steps done =        48000  out of        84400
 Time steps remaining =        36400
 Estimated remaining time in seconds =    24923.5301373603     
 Estimated remaining time in hh:mm:ss =    6 h 55 m 23 s
 Estimated total run time in seconds =    57789.7237250881     
 Estimated total run time in hh:mm:ss =   16 h 03 m 09 s
 We have done    56.87204     % of that
 The run will finish approximately on (in local time): Wed Feb 02, 2022 07:32
 
 
 Total number of receivers saved is           22  out of           22
 
 
 Writing the seismograms by master proc alone took    15.8577249385417      
  seconds
 
 
 Total number of receivers saved is           22  out of           22
 
 
 Writing the seismograms by master proc alone took    11.8944620471448      
  seconds
 
 
 Total number of receivers saved is           22  out of           22
 
 
 Writing the seismograms by master proc alone took    16.9424287024885      
  seconds
 
 
  Total number of time steps written:        48000
 
 Time step #        49000
 Time:    174.5322      minutes
 Max norm displacement vector U in solid in all slices (m) = 
   5.47359062624419     
 Max non-dimensional potential Ufluid in fluid in all slices = 
  1.143907386575943E-010
 Elapsed time in seconds =    33555.3050084580     
 Elapsed time in hh:mm:ss =    9 h 19 m 15 s
 Mean elapsed time per time step in seconds =   0.684802143029755     
 Time steps done =        49000  out of        84400
 Time steps remaining =        35400
 Estimated remaining time in seconds =    24241.9958632533     
 Estimated remaining time in hh:mm:ss =    6 h 44 m 01 s
 Estimated total run time in seconds =    57797.3008717113     
 Estimated total run time in hh:mm:ss =   16 h 03 m 17 s
 We have done    58.05687     % of that
 The run will finish approximately on (in local time): Wed Feb 02, 2022 07:33
 
 
 Total number of receivers saved is           22  out of           22
 
 
 Writing the seismograms by master proc alone took    13.5090768653899      
  seconds
 
 
 Total number of receivers saved is           22  out of           22
 
 
 Writing the seismograms by master proc alone took    13.0774687472731      
  seconds
 
 
 Total number of receivers saved is           22  out of           22
 
 
 Writing the seismograms by master proc alone took    18.9154283162206      
  seconds
 
 
  Total number of time steps written:        49000
 
 Time step #        50000
 Time:    178.0947      minutes
 Max norm displacement vector U in solid in all slices (m) = 
   5.47667296437438     
 Max non-dimensional potential Ufluid in fluid in all slices = 
  1.156788828899804E-010
 Elapsed time in seconds =    34244.5198569391     
 Elapsed time in hh:mm:ss =    9 h 30 m 44 s
 Mean elapsed time per time step in seconds =   0.684890397138782     
 Time steps done =        50000  out of        84400
 Time steps remaining =        34400
 Estimated remaining time in seconds =    23560.2296615741     
 Estimated remaining time in hh:mm:ss =    6 h 32 m 40 s
 Estimated total run time in seconds =    57804.7495185132     
 Estimated total run time in hh:mm:ss =   16 h 03 m 24 s
 We have done    59.24171     % of that
 The run will finish approximately on (in local time): Wed Feb 02, 2022 07:33
 
 
 Total number of receivers saved is           22  out of           22
 
 
 Writing the seismograms by master proc alone took    10.9072346370667      
  seconds
 
 
 Total number of receivers saved is           22  out of           22
 
 
 Writing the seismograms by master proc alone took    9.46879699639976      
  seconds
 
 
 Total number of receivers saved is           22  out of           22
 
 
 Writing the seismograms by master proc alone took    12.2537128645927      
  seconds
 
 
  Total number of time steps written:        50000
 
 Time step #        51000
 Time:    181.6572      minutes
 Max norm displacement vector U in solid in all slices (m) = 
   5.47295851650607     
[...]
  seconds
 
 
 Total number of receivers saved is           22  out of           22
 
 
 Writing the seismograms by master proc alone took    11.1744726542383      
  seconds
 
 
  Total number of time steps written:        71000
 
 Time step #        72000
 Time:    256.4697      minutes
 Max norm displacement vector U in solid in all slices (m) = 
   5.47611663804300     
 Max non-dimensional potential Ufluid in fluid in all slices = 
  2.263103263208430E-010
 Elapsed time in seconds =    49248.4107269067     
 Elapsed time in hh:mm:ss =   13 h 40 m 48 s
 Mean elapsed time per time step in seconds =   0.684005704540371     
 Time steps done =        72000  out of        84400
 Time steps remaining =        12400
 Estimated remaining time in seconds =    8481.67073630060     
 Estimated remaining time in hh:mm:ss =    2 h 21 m 21 s
 Estimated total run time in seconds =    57730.0814632073     
 Estimated total run time in hh:mm:ss =   16 h 02 m 10 s
 We have done    85.30806     % of that
 The run will finish approximately on (in local time): Wed Feb 02, 2022 07:31
 
 
 Total number of receivers saved is           22  out of           22
 
 
 Writing the seismograms by master proc alone took    24.1458192542195      
  seconds
 
 
 Total number of receivers saved is           22  out of           22
 
 
 Writing the seismograms by master proc alone took    22.7196623459458      
  seconds
 
 
 Total number of receivers saved is           22  out of           22
 
 
 Writing the seismograms by master proc alone took    19.0722518749535      
  seconds
 
 
  Total number of time steps written:        72000
 
 Time step #        73000
 Time:    260.0322      minutes
 Max norm displacement vector U in solid in all slices (m) = 
   5.47191911587786     
 Max non-dimensional potential Ufluid in fluid in all slices = 
  2.315446990462162E-010
 Elapsed time in seconds =    49957.9036678541     
 Elapsed time in hh:mm:ss =   13 h 52 m 37 s
 Mean elapsed time per time step in seconds =   0.684354844765125     
 Time steps done =        73000  out of        84400
 Time steps remaining =        11400
 Estimated remaining time in seconds =    7801.64523032243     
 Estimated remaining time in hh:mm:ss =    2 h 10 m 01 s
 Estimated total run time in seconds =    57759.5488981766     
 Estimated total run time in hh:mm:ss =   16 h 02 m 39 s
 We have done    86.49289     % of that
 The run will finish approximately on (in local time): Wed Feb 02, 2022 07:32
 
 
 Total number of receivers saved is           22  out of           22
 
 
 Writing the seismograms by master proc alone took    16.8876557648182      
  seconds
 
 
 Total number of receivers saved is           22  out of           22
 
 
 Writing the seismograms by master proc alone took    16.1407402772456      
  seconds
 
 
 Total number of receivers saved is           22  out of           22
 
 
 Writing the seismograms by master proc alone took    18.8097468446940      
  seconds
 
 
  Total number of time steps written:        73000
 
 Time step #        74000
 Time:    263.5947      minutes
 Max norm displacement vector U in solid in all slices (m) = 
   5.47648325488180     
 Max non-dimensional potential Ufluid in fluid in all slices = 
  2.384493325022413E-010
 Elapsed time in seconds =    50652.9763579722     
 Elapsed time in hh:mm:ss =   14 h 04 m 12 s
 Mean elapsed time per time step in seconds =   0.684499680513138     
 Time steps done =        74000  out of        84400
 Time steps remaining =        10400
 Estimated remaining time in seconds =    7118.79667733664     
 Estimated remaining time in hh:mm:ss =    1 h 58 m 38 s
 Estimated total run time in seconds =    57771.7730353089     
 Estimated total run time in hh:mm:ss =   16 h 02 m 51 s
 We have done    87.67773     % of that
 The run will finish approximately on (in local time): Wed Feb 02, 2022 07:33
 
 
 Total number of receivers saved is           22  out of           22
 
 
 Writing the seismograms by master proc alone took    16.9634434077889      
  seconds
 
 
 Total number of receivers saved is           22  out of           22
 
 
 Writing the seismograms by master proc alone took    18.5454025473446      
  seconds
 
 
 Total number of receivers saved is           22  out of           22
 
 
 Writing the seismograms by master proc alone took    16.9823799002916      
  seconds
 
 
  Total number of time steps written:        74000
 
 Time step #        75000
 Time:    267.1572      minutes
 Max norm displacement vector U in solid in all slices (m) = 
   5.46782549663855     
 Max non-dimensional potential Ufluid in fluid in all slices = 
  2.455497107251191E-010
 Elapsed time in seconds =    51348.8178585805     
 Elapsed time in hh:mm:ss =   14 h 15 m 48 s
 Mean elapsed time per time step in seconds =   0.684650904781073     
 Time steps done =        75000  out of        84400
 Time steps remaining =         9400
 Estimated remaining time in seconds =    6435.71850494209     
 Estimated remaining time in hh:mm:ss =    1 h 47 m 15 s
 Estimated total run time in seconds =    57784.5363635226     
 Estimated total run time in hh:mm:ss =   16 h 03 m 04 s
 We have done    88.86256     % of that
 The run will finish approximately on (in local time): Wed Feb 02, 2022 07:32
 
 
 Total number of receivers saved is           22  out of           22
 
 
 Writing the seismograms by master proc alone took    15.7998166810721      
  seconds
 
 
 Total number of receivers saved is           22  out of           22
 
 
 Writing the seismograms by master proc alone took    22.3622398581356      
  seconds
 
 
 Total number of receivers saved is           22  out of           22
 
 
 Writing the seismograms by master proc alone took    18.8620624355972      
  seconds
 
 
  Total number of time steps written:        75000
 
 Time step #        76000
 Time:    270.7197      minutes
 Max norm displacement vector U in solid in all slices (m) = 
   5.46973387917372     
 Max non-dimensional potential Ufluid in fluid in all slices = 
  2.487726345816936E-010
 Elapsed time in seconds =    52049.7993109748     
 Elapsed time in hh:mm:ss =   14 h 27 m 29 s
 Mean elapsed time per time step in seconds =   0.684865780407563     
 Time steps done =        76000  out of        84400
 Time steps remaining =         8400
 Estimated remaining time in seconds =    5752.87255542353     
 Estimated remaining time in hh:mm:ss =    1 h 35 m 52 s
 Estimated total run time in seconds =    57802.6718663983     
 Estimated total run time in hh:mm:ss =   16 h 03 m 22 s
 We have done    90.04739     % of that
 The run will finish approximately on (in local time): Wed Feb 02, 2022 07:33
 
 
 Total number of receivers saved is           22  out of           22
 
 
 Writing the seismograms by master proc alone took    20.3513804636896      
  seconds
 
 
 Total number of receivers saved is           22  out of           22
 
 
 Writing the seismograms by master proc alone took    17.8447191230953      
  seconds
 
 
 Total number of receivers saved is           22  out of           22
 
 
 Writing the seismograms by master proc alone took    15.3356960359961      
  seconds
 
 
  Total number of time steps written:        76000
 
 Time step #        77000
 Time:    274.2822      minutes
 Max norm displacement vector U in solid in all slices (m) = 
   5.46784777680230     
 Max non-dimensional potential Ufluid in fluid in all slices = 
  2.532469507552741E-010
 Elapsed time in seconds =    52747.2232467998     
 Elapsed time in hh:mm:ss =   14 h 39 m 07 s
 Mean elapsed time per time step in seconds =   0.685028873335062     
 Time steps done =        77000  out of        84400
 Time steps remaining =         7400
 Estimated remaining time in seconds =    5069.21366267946     
 Estimated remaining time in hh:mm:ss =    1 h 24 m 29 s
 Estimated total run time in seconds =    57816.4369094792     
 Estimated total run time in hh:mm:ss =   16 h 03 m 36 s
 We have done    91.23223     % of that
 The run will finish approximately on (in local time): Wed Feb 02, 2022 07:33
 
 
 Total number of receivers saved is           22  out of           22
 
 
 Writing the seismograms by master proc alone took    16.5413788650185      
  seconds
 
 
 Total number of receivers saved is           22  out of           22
 
 
 Writing the seismograms by master proc alone took    15.7893825173378      
  seconds
 
 
 Total number of receivers saved is           22  out of           22
 
 
 Writing the seismograms by master proc alone took    17.2685727048665      
  seconds
 
 
  Total number of time steps written:        77000
 
 Time step #        78000
 Time:    277.8447      minutes
 Max norm displacement vector U in solid in all slices (m) = 
   5.48182072758559     
 Max non-dimensional potential Ufluid in fluid in all slices = 
  2.597764863619658E-010
 Elapsed time in seconds =    53440.8177584521     
 Elapsed time in hh:mm:ss =   14 h 50 m 40 s
 Mean elapsed time per time step in seconds =   0.685138689210925     
 Time steps done =        78000  out of        84400
 Time steps remaining =         6400
 Estimated remaining time in seconds =    4384.88761094992     
 Estimated remaining time in hh:mm:ss =    1 h 13 m 04 s
 Estimated total run time in seconds =    57825.7053694021     
 Estimated total run time in hh:mm:ss =   16 h 03 m 45 s
 We have done    92.41706     % of that
 The run will finish approximately on (in local time): Wed Feb 02, 2022 07:33
 
 
 Total number of receivers saved is           22  out of           22
 
 
 Writing the seismograms by master proc alone took    23.0154942777008      
  seconds
 
 
 Total number of receivers saved is           22  out of           22
 
 
 Writing the seismograms by master proc alone took    19.6329792737961      
  seconds
 
 
 Total number of receivers saved is           22  out of           22
 
 
 Writing the seismograms by master proc alone took    20.5150839779526      
  seconds
 
 
  Total number of time steps written:        78000
 
 Time step #        79000
 Time:    281.4072      minutes
 Max norm displacement vector U in solid in all slices (m) = 
   5.45690709224000     
 Max non-dimensional potential Ufluid in fluid in all slices = 
  2.678174047901190E-010
 Elapsed time in seconds =    54146.9015841074     
 Elapsed time in hh:mm:ss =   15 h 02 m 26 s
 Mean elapsed time per time step in seconds =   0.685403817520347     
 Time steps done =        79000  out of        84400
 Time steps remaining =         5400
 Estimated remaining time in seconds =    3701.18061460987     
 Estimated remaining time in hh:mm:ss =    1 h 01 m 41 s
 Estimated total run time in seconds =    57848.0821987173     
 Estimated total run time in hh:mm:ss =   16 h 04 m 08 s
 We have done    93.60190     % of that
 The run will finish approximately on (in local time): Wed Feb 02, 2022 07:34
 
 
 Total number of receivers saved is           22  out of           22
 
 
 Writing the seismograms by master proc alone took    15.5725060515106      
  seconds
 
 
 Total number of receivers saved is           22  out of           22
 
 
 Writing the seismograms by master proc alone took    15.6123594678938      
  seconds
 
 
 Total number of receivers saved is           22  out of           22
 
 
 Writing the seismograms by master proc alone took    12.1319067142904      
  seconds
 
 
  Total number of time steps written:        79000
 
 Time step #        80000
 Time:    284.9697      minutes
 Max norm displacement vector U in solid in all slices (m) = 
   5.47136159667226     
 Max non-dimensional potential Ufluid in fluid in all slices = 
  2.720862419681408E-010
 Elapsed time in seconds =    54833.7086034734     
 Elapsed time in hh:mm:ss =   15 h 13 m 53 s
 Mean elapsed time per time step in seconds =   0.685421357543417     
 Time steps done =        80000  out of        84400
 Time steps remaining =         4400
 Estimated remaining time in seconds =    3015.85397319104     
 Estimated remaining time in hh:mm:ss =    0 h 50 m 15 s
 Estimated total run time in seconds =    57849.5625766644     
 Estimated total run time in hh:mm:ss =   16 h 04 m 09 s
 We have done    94.78673     % of that
 The run will finish approximately on (in local time): Wed Feb 02, 2022 07:34
 
 
 Total number of receivers saved is           22  out of           22
 
 
 Writing the seismograms by master proc alone took    20.6943494994193      
  seconds
 
 
 Total number of receivers saved is           22  out of           22
 
 
 Writing the seismograms by master proc alone took    18.6338502634317      
  seconds
 
 
 Total number of receivers saved is           22  out of           22
 
 
 Writing the seismograms by master proc alone took    23.2217597048730      
  seconds
 
 
  Total number of time steps written:        80000
 
 Time step #        81000
 Time:    288.5322      minutes
 Max norm displacement vector U in solid in all slices (m) = 
   5.47526761394323     
 Max non-dimensional potential Ufluid in fluid in all slices = 
  2.822981532312337E-010
 Elapsed time in seconds =    55540.2676413674     
 Elapsed time in hh:mm:ss =   15 h 25 m 40 s
 Mean elapsed time per time step in seconds =   0.685682316560091     
 Time steps done =        81000  out of        84400
 Time steps remaining =         3400
 Estimated remaining time in seconds =    2331.31987630431     
 Estimated remaining time in hh:mm:ss =    0 h 38 m 51 s
 Estimated total run time in seconds =    57871.5875176717     
 Estimated total run time in hh:mm:ss =   16 h 04 m 31 s
 We have done    95.97157     % of that
 The run will finish approximately on (in local time): Wed Feb 02, 2022 07:34
 
 
 Total number of receivers saved is           22  out of           22
 
 
 Writing the seismograms by master proc alone took    14.9858819711953      
  seconds
 
 
 Total number of receivers saved is           22  out of           22
 
 
 Writing the seismograms by master proc alone took    18.2883285135031      
  seconds
 
 
 Total number of receivers saved is           22  out of           22
 
 
 Writing the seismograms by master proc alone took    15.3451807182282      
  seconds
 
 
  Total number of time steps written:        81000
 
 Time step #        82000
 Time:    292.0947      minutes
 Max norm displacement vector U in solid in all slices (m) = 
   5.46546335547502     
 Max non-dimensional potential Ufluid in fluid in all slices = 
  2.880521195824875E-010
 Elapsed time in seconds =    56232.2984414324     
 Elapsed time in hh:mm:ss =   15 h 37 m 12 s
 Mean elapsed time per time step in seconds =   0.685759737090639     
 Time steps done =        82000  out of        84400
 Time steps remaining =         2400
 Estimated remaining time in seconds =    1645.82336901753     
 Estimated remaining time in hh:mm:ss =    0 h 27 m 25 s
 Estimated total run time in seconds =    57878.1218104499     
 Estimated total run time in hh:mm:ss =   16 h 04 m 38 s
 We have done    97.15639     % of that
 The run will finish approximately on (in local time): Wed Feb 02, 2022 07:34
 
 
 Total number of receivers saved is           22  out of           22
 
 
 Writing the seismograms by master proc alone took    20.6515956092626      
  seconds
 
 
 Total number of receivers saved is           22  out of           22
 
 
 Writing the seismograms by master proc alone took    13.7894554361701      
  seconds
 
 
 Total number of receivers saved is           22  out of           22
 
 
 Writing the seismograms by master proc alone took    21.1504713408649      
  seconds
 
 
  Total number of time steps written:        82000
 
 Time step #        83000
 Time:    295.6572      minutes
 Max norm displacement vector U in solid in all slices (m) = 
   5.46600837062744     
 Max non-dimensional potential Ufluid in fluid in all slices = 
  2.955099309636254E-010
 Elapsed time in seconds =    56932.3392370995     
 Elapsed time in hh:mm:ss =   15 h 48 m 52 s
 Mean elapsed time per time step in seconds =   0.685931798037343     
 Time steps done =        83000  out of        84400
 Time steps remaining =         1400
 Estimated remaining time in seconds =    960.304517252281     
 Estimated remaining time in hh:mm:ss =    0 h 16 m 00 s
 Estimated total run time in seconds =    57892.6437543518     
 Estimated total run time in hh:mm:ss =   16 h 04 m 52 s
 We have done    98.34123     % of that
 The run will finish approximately on (in local time): Wed Feb 02, 2022 07:35
 
 
 Total number of receivers saved is           22  out of           22
 
 
 Writing the seismograms by master proc alone took    16.0066574178636      
  seconds
 
 
 Total number of receivers saved is           22  out of           22
 
 
 Writing the seismograms by master proc alone took    14.1499095670879      
  seconds
 
 
 Total number of receivers saved is           22  out of           22
 
 
 Writing the seismograms by master proc alone took    14.3726926948875      
  seconds
 
 
  Total number of time steps written:        83000
 
 Time step #        84000
 Time:    299.2197      minutes
 Max norm displacement vector U in solid in all slices (m) = 
   5.47544261501626     
 Max non-dimensional potential Ufluid in fluid in all slices = 
  3.066306721227325E-010
 Elapsed time in seconds =    57621.3583969604     
 Elapsed time in hh:mm:ss =   16 h 00 m 21 s
 Mean elapsed time per time step in seconds =   0.685968552344767     
 Time steps done =        84000  out of        84400
 Time steps remaining =          400
 Estimated remaining time in seconds =    274.387420937907     
 Estimated remaining time in hh:mm:ss =    0 h 04 m 34 s
 Estimated total run time in seconds =    57895.7458178983     
 Estimated total run time in hh:mm:ss =   16 h 04 m 55 s
 We have done    99.52607     % of that
 The run will finish approximately on (in local time): Wed Feb 02, 2022 07:35
 
 
 Total number of receivers saved is           22  out of           22
 
 
 Writing the seismograms by master proc alone took    24.7426326647401      
  seconds
 
 
 Total number of receivers saved is           22  out of           22
 
 
 Writing the seismograms by master proc alone took    25.8160021025687      
  seconds
 
 
 Total number of receivers saved is           22  out of           22
 
 
 Writing the seismograms by master proc alone took    23.9551536235958      
  seconds
 
 
  Total number of time steps written:        84000
 
 Time step #        84400
 Time:    300.6447      minutes
 Max norm displacement vector U in solid in all slices (m) = 
   5.47852689696114     
 Max non-dimensional potential Ufluid in fluid in all slices = 
  3.080540522544585E-010
 Elapsed time in seconds =    57953.1912033539     
 Elapsed time in hh:mm:ss =   16 h 05 m 53 s
 Mean elapsed time per time step in seconds =   0.686649184873862     
 Time steps done =        84400  out of        84400
 Time steps remaining =            0
 Estimated remaining time in seconds =   0.000000000000000E+000
 Estimated remaining time in hh:mm:ss =    0 h 00 m 00 s
 Estimated total run time in seconds =    57953.1912033539     
 Estimated total run time in hh:mm:ss =   16 h 05 m 53 s
 We have done    100.0000     % of that
 
 
 Total number of receivers saved is           22  out of           22
 
 
 Writing the seismograms by master proc alone took    21.2445579413325      
  seconds
 
 
 Total number of receivers saved is           22  out of           22
 
 
 Writing the seismograms by master proc alone took    12.4114478696138      
  seconds
 
 
 Total number of receivers saved is           22  out of           22
 
 
 Writing the seismograms by master proc alone took    3.94855202175677      
  seconds
 
 
  Total number of time steps written:        84400
 
 Time-Loop Complete. Timing info:
 Total elapsed time in seconds =    57991.4681590311     
 Total elapsed time in hh:mm:ss =   16 h 06 m 31 s
 
 End of the simulation
 
