 
 ******************************
 **** Specfem3D MPI Solver ****
 ******************************
 
 
 Fixing slow underflow trapping problem using small initial field
 
 There are          150  MPI processes
 Processes are numbered from 0 to          149
 
 There are          160  elements along xi in each chunk
 There are          160  elements along eta in each chunk
 
 There are            5  slices along xi in each chunk
 There are            5  slices along eta in each chunk
 There is a total of           25  slices in each chunk
 There are            6  chunks
 There is a total of          150  slices in all the chunks
 
 NDIM =            3
 
 NGLLX =            5
 NGLLY =            5
 NGLLZ =            5
 
 using double precision for the calculations
 
 smallest and largest possible floating-point numbers are: 
  2.225073858507201E-308  1.797693134862316E+308
 
 model: 1D_isotropic_prem_onecrust
   no oceans
   no ellipticity
   no surface topography
   incorporating self-gravitation (Cowling approximation)
   no full self-gravitation
   no rotation
   no attenuation
 
   no 3-D lateral variations
   no heterogeneities in the mantle
   no crustal variations
   using one layer only in PREM crust
   no transverse isotropy
   no inner-core anisotropy
   no general mantle anisotropy
 
 
 Spatial distribution of the slices
                       24   19   14    9    4
                       23   18   13    8    3
                       22   17   12    7    2
                       21   16   11    6    1
                       20   15   10    5    0
  
    74   69   64   59   54      49   44   39   34   29     124  119  114  109  104
    73   68   63   58   53      48   43   38   33   28     123  118  113  108  103
    72   67   62   57   52      47   42   37   32   27     122  117  112  107  102
    71   66   61   56   51      46   41   36   31   26     121  116  111  106  101
    70   65   60   55   50      45   40   35   30   25     120  115  110  105  100
  
                      149  144  139  134  129
                      148  143  138  133  128
                      147  142  137  132  127
                      146  141  136  131  126
                      145  140  135  130  125
  
                       99   94   89   84   79
                       98   93   88   83   78
                       97   92   87   82   77
                       96   91   86   81   76
                       95   90   85   80   75
  
 for overlapping of communications with calculations:
 
 percentage of edge elements in crust/mantle    21.74370     %
 percentage of volume elements in crust/mantle    78.25630     %
 
 percentage of edge elements in outer core    51.16279     %
 percentage of volume elements in outer core    48.83721     %
 
 percentage of edge elements in inner core    48.86364     %
 percentage of volume elements in inner core    51.13636     %
 
 
 Elapsed time for reading mesh in seconds =    8.559942    
 
 
 *************************************
  locating source            1
 *************************************
 
 source located in slice           31
                in element         5476
 
    xi coordinate of source in that element:   0.617831373453668     
   eta coordinate of source in that element:   0.555560845953167     
 gamma coordinate of source in that element:  -0.345717528757234     
 
 Source time function is a Heaviside, convolve later
 
 
  half duration:    1.19700000000000       seconds
     time shift:   0.000000000000000E+000  seconds
 
 original (requested) position of the source:
 
       latitude:   -13.8200000000000     
      longitude:   -67.2500000000000     
          depth:    647.100000000000       km
 
 position of the source that will be used:
 
       latitude:   -13.8201392726270     
      longitude:   -67.2500000000000     
          depth:    647.099999999998       km
 
 error in location of the source:   1.4256553E-12  km
 
 maximum error in location of the sources:   1.4256553E-12  km
 
 
 Elapsed time for detection of sources in seconds =   3.577248478541151E-002
 
 End of source detection - done
 
 
 printing the source-time function
 
 printing the source spectrum
 
 Total number of receivers =           22
 
 
 ********************
  locating receivers
 ********************
 
 
 ****************************
 reading receiver information
 ****************************
 
 Station #           1 : X1.Y5    epicentral distance:     76.26914      degrees
 Station #           2 : X11.Y5    epicentral distance:     72.58041      degree
 s
 Station #           3 : X21.Y5    epicentral distance:     69.38307      degree
 s
 Station #           4 : X31.Y5    epicentral distance:     66.79688      degree
 s
 Station #           5 : X41.Y5    epicentral distance:     64.92879      degree
 s
 Station #           6 : X51.Y5    epicentral distance:     63.86168      degree
 s
 Station #           7 : X61.Y5    epicentral distance:     63.64333      degree
 s
 Station #           8 : X71.Y5    epicentral distance:     64.27948      degree
 s
 Station #           9 : X81.Y5    epicentral distance:     65.73383      degree
 s
 Station #          10 : X91.Y5    epicentral distance:     67.93493      degree
 s
 Station #          11 : X101.Y5    epicentral distance:     70.78721     
  degrees
 Station #          12 : X111.Y5    epicentral distance:     74.18219     
  degrees
 Station #          13 : X121.Y5    epicentral distance:     78.00696     
  degrees
 Station #          14 : X131.Y5    epicentral distance:     82.14889     
  degrees
 Station #          15 : X141.Y5    epicentral distance:     86.49711     
  degrees
 Station #          16 : X151.Y5    epicentral distance:     90.94174     
  degrees
 Station #          17 : X161.Y5    epicentral distance:     95.37203     
  degrees
 Station #          18 : X171.Y5    epicentral distance:     99.67435     
  degrees
 Station #          19 : X181.Y5    epicentral distance:     103.7309     
  degrees
 Station #          20 : LIGO.HN    epicentral distance:     76.08275     
  degrees
 Station #          21 : LIGO.LV    epicentral distance:     49.59536     
  degrees
 Station #          22 : PRNC.GY    epicentral distance:     54.32447     
  degrees
 
 maximum error in location of all the receivers:   2.3724338E-12  km
 
 Elapsed time for receiver detection in seconds =   3.417087916750461E-002
 
 End of receiver detection - done
 
 
 found a total of           22  receivers in all slices
 this total is okay
 
 Total number of samples for seismograms =        75300
 
 
 Reference radius of the Earth used is    6371.00000000000       km
 
 
 no oceans
 
 no ellipticity
 
 no surface topography
 
 incorporating self-gravitation (Cowling approximation)
 
 no rotation
 
 no attenuation
 
 
 
 preparing mass matrices.
 
 preparing constants.
 
 preparing gravity arrays.
 
 initializing wavefields.
 
 
 Elapsed time for preparing timerun in seconds =   0.7935680    
 
 time loop:
 
            time step:   0.2394000      s
 number of time steps:        75300
 total simulated time:    300.4131      minutes
 start time          :  -1.795500      seconds
 
 
 Starting time iteration loop...
 
 Time step #            5
 Time:  -1.3965000E-02  minutes
 Max norm displacement vector U in solid in all slices (m) = 
  1.126237344899679E-003
 Max non-dimensional potential Ufluid in fluid in all slices = 
  0.000000000000000E+000
 Elapsed time in seconds =    2.32444123277673     
 Elapsed time in hh:mm:ss =    0 h 00 m 02 s
 Mean elapsed time per time step in seconds =   0.464888246555347     
 Time steps done =            5  out of        75300
 Time steps remaining =        75295
 Estimated remaining time in seconds =    35003.7605243849     
 Estimated remaining time in hh:mm:ss =    9 h 43 m 23 s
 Estimated total run time in seconds =    35006.0849656176     
 Estimated total run time in hh:mm:ss =    9 h 43 m 26 s
 We have done   6.6401064E-03 % of that
 The run will finish approximately on (in local time): Thu Dec 09, 2021 22:43
 ************************************************************
 **** BEWARE: the above time estimates are not reliable
 **** because fewer than 100 iterations have been performed
 ************************************************************
 
 Time step #         1000
 Time:    3.956085      minutes
 Max norm displacement vector U in solid in all slices (m) = 
   3.06978307467798     
 Max non-dimensional potential Ufluid in fluid in all slices = 
  3.836337925526191E-012
 Elapsed time in seconds =    621.238851237576     
 Elapsed time in hh:mm:ss =    0 h 10 m 21 s
 Mean elapsed time per time step in seconds =   0.621238851237576     
 Time steps done =         1000  out of        75300
 Time steps remaining =        74300
 Estimated remaining time in seconds =    46158.0466469519     
 Estimated remaining time in hh:mm:ss =   12 h 49 m 18 s
 Estimated total run time in seconds =    46779.2854981895     
 Estimated total run time in hh:mm:ss =   12 h 59 m 39 s
 We have done    1.328021     % of that
 The run will finish approximately on (in local time): Fri Dec 10, 2021 01:59
 
 
 Total number of receivers saved is           22  out of           22
 
 
 Writing the seismograms by master proc alone took    1.16258407843998      
  seconds
 
 
 Total number of receivers saved is           22  out of           22
 
 
 Writing the seismograms by master proc alone took   0.945201214402914      
  seconds
 
 
 Total number of receivers saved is           22  out of           22
 
 
 Writing the seismograms by master proc alone took   0.800607590354048      
  seconds
 
 
  Total number of time steps written:         1000
 
 Time step #         2000
 Time:    7.946085      minutes
 Max norm displacement vector U in solid in all slices (m) = 
   3.05981952572971     
 Max non-dimensional potential Ufluid in fluid in all slices = 
  1.023565700110319E-011
 Elapsed time in seconds =    1249.22023808159     
 Elapsed time in hh:mm:ss =    0 h 20 m 49 s
 Mean elapsed time per time step in seconds =   0.624610119040794     
 Time steps done =         2000  out of        75300
 Time steps remaining =        73300
 Estimated remaining time in seconds =    45783.9217256902     
 Estimated remaining time in hh:mm:ss =   12 h 43 m 03 s
 Estimated total run time in seconds =    47033.1419637718     
 Estimated total run time in hh:mm:ss =   13 h 03 m 53 s
 We have done    2.656043     % of that
 The run will finish approximately on (in local time): Fri Dec 10, 2021 02:03
 
 
 Total number of receivers saved is           22  out of           22
 
 
 Writing the seismograms by master proc alone took   0.273554364801385      
  seconds
 
 
 Total number of receivers saved is           22  out of           22
 
 
 Writing the seismograms by master proc alone took   0.273571974423248      
  seconds
 
 
 Total number of receivers saved is           22  out of           22
 
 
 Writing the seismograms by master proc alone took   0.273308288829867      
  seconds
 
 
  Total number of time steps written:         2000
 
 Time step #         3000
 Time:    11.93608      minutes
 Max norm displacement vector U in solid in all slices (m) = 
   3.05769120959079     
 Max non-dimensional potential Ufluid in fluid in all slices = 
  8.910892724045399E-012
 Elapsed time in seconds =    1875.25302647520     
 Elapsed time in hh:mm:ss =    0 h 31 m 15 s
 Mean elapsed time per time step in seconds =   0.625084342158399     
 Time steps done =         3000  out of        75300
 Time steps remaining =        72300
 Estimated remaining time in seconds =    45193.5979380523     
 Estimated remaining time in hh:mm:ss =   12 h 33 m 13 s
 Estimated total run time in seconds =    47068.8509645275     
 Estimated total run time in hh:mm:ss =   13 h 04 m 28 s
 We have done    3.984064     % of that
 The run will finish approximately on (in local time): Fri Dec 10, 2021 02:04
 
 
 Total number of receivers saved is           22  out of           22
 
 
 Writing the seismograms by master proc alone took   0.455427068809513      
  seconds
 
 
 Total number of receivers saved is           22  out of           22
 
 
 Writing the seismograms by master proc alone took   0.443955477559939      
  seconds
 
 
 Total number of receivers saved is           22  out of           22
 
 
 Writing the seismograms by master proc alone took   0.444802154437639      
  seconds
 
 
  Total number of time steps written:         3000
 
 Time step #         4000
 Time:    15.92609      minutes
 Max norm displacement vector U in solid in all slices (m) = 
   3.06021075986415     
 Max non-dimensional potential Ufluid in fluid in all slices = 
  9.889888580822849E-012
 Elapsed time in seconds =    2501.35727041517     
 Elapsed time in hh:mm:ss =    0 h 41 m 41 s
 Mean elapsed time per time step in seconds =   0.625339317603793     
 Time steps done =         4000  out of        75300
 Time steps remaining =        71300
 Estimated remaining time in seconds =    44586.6933451505     
 Estimated remaining time in hh:mm:ss =   12 h 23 m 06 s
 Estimated total run time in seconds =    47088.0506155656     
 Estimated total run time in hh:mm:ss =   13 h 04 m 48 s
 We have done    5.312085     % of that
 The run will finish approximately on (in local time): Fri Dec 10, 2021 02:04
 
 
 Total number of receivers saved is           22  out of           22
 
 
 Writing the seismograms by master proc alone took   0.275123166444246      
  seconds
 
 
 Total number of receivers saved is           22  out of           22
 
 
 Writing the seismograms by master proc alone took   0.274673774430994      
  seconds
 
 
 Total number of receivers saved is           22  out of           22
 
 
 Writing the seismograms by master proc alone took   0.275174048787449      
  seconds
 
 
  Total number of time steps written:         4000
 
 Time step #         5000
 Time:    19.91608      minutes
 Max norm displacement vector U in solid in all slices (m) = 
   3.05228147939521     
 Max non-dimensional potential Ufluid in fluid in all slices = 
  9.818077339817355E-012
 Elapsed time in seconds =    3127.24496049597     
 Elapsed time in hh:mm:ss =    0 h 52 m 07 s
 Mean elapsed time per time step in seconds =   0.625448992099194     
 Time steps done =         5000  out of        75300
 Time steps remaining =        70300
 Estimated remaining time in seconds =    43969.0641445733     
 Estimated remaining time in hh:mm:ss =   12 h 12 m 49 s
 Estimated total run time in seconds =    47096.3091050693     
 Estimated total run time in hh:mm:ss =   13 h 04 m 56 s
 We have done    6.640106     % of that
 The run will finish approximately on (in local time): Fri Dec 10, 2021 02:05
 
 
 Total number of receivers saved is           22  out of           22
 
 
 Writing the seismograms by master proc alone took   0.275983997620642      
  seconds
 
 
 Total number of receivers saved is           22  out of           22
 
 
 Writing the seismograms by master proc alone took   0.274877161602490      
  seconds
 
 
 Total number of receivers saved is           22  out of           22
 
 
 Writing the seismograms by master proc alone took   0.274561913625803      
  seconds
 
 
  Total number of time steps written:         5000
 
 Time step #         6000
 Time:    23.90608      minutes
 Max norm displacement vector U in solid in all slices (m) = 
   3.05856084616373     
 Max non-dimensional potential Ufluid in fluid in all slices = 
  9.282934711217682E-012
 Elapsed time in seconds =    3753.72151294077     
 Elapsed time in hh:mm:ss =    1 h 02 m 33 s
 Mean elapsed time per time step in seconds =   0.625620252156795     
 Time steps done =         6000  out of        75300
 Time steps remaining =        69300
 Estimated remaining time in seconds =    43355.4834744659     
 Estimated remaining time in hh:mm:ss =   12 h 02 m 35 s
 Estimated total run time in seconds =    47109.2049874067     
 Estimated total run time in hh:mm:ss =   13 h 05 m 09 s
 We have done    7.968128     % of that
 The run will finish approximately on (in local time): Fri Dec 10, 2021 02:05
 
 
 Total number of receivers saved is           22  out of           22
 
 
 Writing the seismograms by master proc alone took   0.435506560839713      
  seconds
 
 
 Total number of receivers saved is           22  out of           22
 
 
 Writing the seismograms by master proc alone took   0.431088996003382      
  seconds
 
 
 Total number of receivers saved is           22  out of           22
 
 
 Writing the seismograms by master proc alone took   0.428243723988999      
  seconds
 
 
  Total number of time steps written:         6000
 
 Time step #         7000
 Time:    27.89609      minutes
 Max norm displacement vector U in solid in all slices (m) = 
   3.05945935770756     
 Max non-dimensional potential Ufluid in fluid in all slices = 
  9.396323314621755E-012
 Elapsed time in seconds =    4380.03901642479     
 Elapsed time in hh:mm:ss =    1 h 13 m 00 s
 Mean elapsed time per time step in seconds =   0.625719859489256     
 Time steps done =         7000  out of        75300
 Time steps remaining =        68300
 Estimated remaining time in seconds =    42736.6664031162     
 Estimated remaining time in hh:mm:ss =   11 h 52 m 16 s
 Estimated total run time in seconds =    47116.7054195410     
 Estimated total run time in hh:mm:ss =   13 h 05 m 16 s
 We have done    9.296148     % of that
 The run will finish approximately on (in local time): Fri Dec 10, 2021 02:05
 
 
 Total number of receivers saved is           22  out of           22
 
 
 Writing the seismograms by master proc alone took   0.276863147213589      
  seconds
 
 
 Total number of receivers saved is           22  out of           22
 
 
 Writing the seismograms by master proc alone took   0.276834592805244      
  seconds
 
 
 Total number of receivers saved is           22  out of           22
 
 
 Writing the seismograms by master proc alone took   0.276116247230675      
  seconds
 
 
  Total number of time steps written:         7000
 
 Time step #         8000
 Time:    31.88609      minutes
 Max norm displacement vector U in solid in all slices (m) = 
   3.05314608142556     
 Max non-dimensional potential Ufluid in fluid in all slices = 
  9.180492936028625E-012
 Elapsed time in seconds =    5006.02979899920     
 Elapsed time in hh:mm:ss =    1 h 23 m 26 s
 Mean elapsed time per time step in seconds =   0.625753724874899     
 Time steps done =         8000  out of        75300
 Time steps remaining =        67300
 Estimated remaining time in seconds =    42113.2256840807     
 Estimated remaining time in hh:mm:ss =   11 h 41 m 53 s
 Estimated total run time in seconds =    47119.2554830799     
 Estimated total run time in hh:mm:ss =   13 h 05 m 19 s
 We have done    10.62417     % of that
 The run will finish approximately on (in local time): Fri Dec 10, 2021 02:05
 
 
 Total number of receivers saved is           22  out of           22
 
 
 Writing the seismograms by master proc alone took   0.455196432012599      
  seconds
 
 
 Total number of receivers saved is           22  out of           22
 
 
 Writing the seismograms by master proc alone took   0.452554528019391      
  seconds
 
 
 Total number of receivers saved is           22  out of           22
 
 
 Writing the seismograms by master proc alone took   0.453362541564275      
  seconds
 
 
  Total number of time steps written:         8000
 
 Time step #         9000
 Time:    35.87608      minutes
 Max norm displacement vector U in solid in all slices (m) = 
   3.05268146990644     
 Max non-dimensional potential Ufluid in fluid in all slices = 
  1.040489867328524E-011
 Elapsed time in seconds =    5632.27422117197     
 Elapsed time in hh:mm:ss =    1 h 33 m 52 s
 Mean elapsed time per time step in seconds =   0.625808246796886     
 Time steps done =         9000  out of        75300
 Time steps remaining =        66300
 Estimated remaining time in seconds =    41491.0867626335     
 Estimated remaining time in hh:mm:ss =   11 h 31 m 31 s
 Estimated total run time in seconds =    47123.3609838055     
 Estimated total run time in hh:mm:ss =   13 h 05 m 23 s
 We have done    11.95219     % of that
 The run will finish approximately on (in local time): Fri Dec 10, 2021 02:06
 
 
 Total number of receivers saved is           22  out of           22
 
 
 Writing the seismograms by master proc alone took   0.278701417613775      
  seconds
 
 
 Total number of receivers saved is           22  out of           22
 
 
 Writing the seismograms by master proc alone took   0.277916741557419      
  seconds
 
 
 Total number of receivers saved is           22  out of           22
 
 
 Writing the seismograms by master proc alone took   0.277172398404218      
  seconds
 
 
  Total number of time steps written:         9000
 
 Time step #        10000
 Time:    39.86609      minutes
 Max norm displacement vector U in solid in all slices (m) = 
   3.05264356564724     
 Max non-dimensional potential Ufluid in fluid in all slices = 
  1.008572420915184E-011
 Elapsed time in seconds =    6258.41718102957     
 Elapsed time in hh:mm:ss =    1 h 44 m 18 s
 Mean elapsed time per time step in seconds =   0.625841718102957     
 Time steps done =        10000  out of        75300
 Time steps remaining =        65300
 Estimated remaining time in seconds =    40867.4641921231     
 Estimated remaining time in hh:mm:ss =   11 h 21 m 07 s
 Estimated total run time in seconds =    47125.8813731526     
 Estimated total run time in hh:mm:ss =   13 h 05 m 25 s
 We have done    13.28021     % of that
 The run will finish approximately on (in local time): Fri Dec 10, 2021 02:05
 
 
 Total number of receivers saved is           22  out of           22
 
 
 Writing the seismograms by master proc alone took   0.279140281607397      
  seconds
 
 
 Total number of receivers saved is           22  out of           22
 
 
 Writing the seismograms by master proc alone took   0.278419075184502      
  seconds
 
 
 Total number of receivers saved is           22  out of           22
 
 
 Writing the seismograms by master proc alone took   0.278237936785445      
  seconds
 
 
  Total number of time steps written:        10000
 
 Time step #        11000
 Time:    43.85609      minutes
 Max norm displacement vector U in solid in all slices (m) = 
   3.05258559521278     
 Max non-dimensional potential Ufluid in fluid in all slices = 
  1.092340438149766E-011
 Elapsed time in seconds =    6884.52819981996     
 Elapsed time in hh:mm:ss =    1 h 54 m 44 s
 Mean elapsed time per time step in seconds =   0.625866199983633     
 Time steps done =        11000  out of        75300
 Time steps remaining =        64300
 Estimated remaining time in seconds =    40243.1966589476     
 Estimated remaining time in hh:mm:ss =   11 h 10 m 43 s
 Estimated total run time in seconds =    47127.7248587676     
 Estimated total run time in hh:mm:ss =   13 h 05 m 27 s
 We have done    14.60823     % of that
 The run will finish approximately on (in local time): Fri Dec 10, 2021 02:06
 
 
 Total number of receivers saved is           22  out of           22
 
 
 Writing the seismograms by master proc alone took   0.439990224782377      
  seconds
 
 
 Total number of receivers saved is           22  out of           22
 
 
 Writing the seismograms by master proc alone took   0.441747160046361      
  seconds
 
 
 Total number of receivers saved is           22  out of           22
 
 
 Writing the seismograms by master proc alone took   0.446780969621614      
  seconds
 
 
  Total number of time steps written:        11000
 
 Time step #        12000
 Time:    47.84608      minutes
 Max norm displacement vector U in solid in all slices (m) = 
   3.05648027098449     
 Max non-dimensional potential Ufluid in fluid in all slices = 
  1.506831750890607E-011
 Elapsed time in seconds =    7511.20185324078     
 Elapsed time in hh:mm:ss =    2 h 05 m 11 s
 Mean elapsed time per time step in seconds =   0.625933487770065     
 Time steps done =        12000  out of        75300
 Time steps remaining =        63300
 Estimated remaining time in seconds =    39621.5897758451     
 Estimated remaining time in hh:mm:ss =   11 h 00 m 21 s
 Estimated total run time in seconds =    47132.7916290859     
 Estimated total run time in hh:mm:ss =   13 h 05 m 32 s
 We have done    15.93626     % of that
 The run will finish approximately on (in local time): Fri Dec 10, 2021 02:05
 
 
 Total number of receivers saved is           22  out of           22
 
 
 Writing the seismograms by master proc alone took   0.298489095177501      
  seconds
 
 
 Total number of receivers saved is           22  out of           22
 
 
 Writing the seismograms by master proc alone took   0.298012812039815      
  seconds
 
 
 Total number of receivers saved is           22  out of           22
 
 
 Writing the seismograms by master proc alone took   0.298225543228909      
  seconds
 
 
  Total number of time steps written:        12000
 
 Time step #        13000
 Time:    51.83609      minutes
 Max norm displacement vector U in solid in all slices (m) = 
   3.05578282179734     
 Max non-dimensional potential Ufluid in fluid in all slices = 
  1.465710073557220E-011
 Elapsed time in seconds =    8137.09783714637     
 Elapsed time in hh:mm:ss =    2 h 15 m 37 s
 Mean elapsed time per time step in seconds =   0.625930602857413     
 Time steps done =        13000  out of        75300
 Time steps remaining =        62300
 Estimated remaining time in seconds =    38995.4765580168     
 Estimated remaining time in hh:mm:ss =   10 h 49 m 55 s
 Estimated total run time in seconds =    47132.5743951632     
 Estimated total run time in hh:mm:ss =   13 h 05 m 32 s
 We have done    17.26428     % of that
 The run will finish approximately on (in local time): Fri Dec 10, 2021 02:05
 
 
 Total number of receivers saved is           22  out of           22
 
 
 Writing the seismograms by master proc alone took   0.484822411206551      
  seconds
 
 
 Total number of receivers saved is           22  out of           22
 
 
 Writing the seismograms by master proc alone took   0.482432281598449      
  seconds
 
 
 Total number of receivers saved is           22  out of           22
 
 
 Writing the seismograms by master proc alone took   0.482173767231870      
  seconds
 
 
  Total number of time steps written:        13000
 
 Time step #        14000
 Time:    55.82608      minutes
 Max norm displacement vector U in solid in all slices (m) = 
   3.05263715166687     
 Max non-dimensional potential Ufluid in fluid in all slices = 
  1.751936980815995E-011
 Elapsed time in seconds =    8763.51773040480     
 Elapsed time in hh:mm:ss =    2 h 26 m 03 s
 Mean elapsed time per time step in seconds =   0.625965552171771     
 Time steps done =        14000  out of        75300
 Time steps remaining =        61300
 Estimated remaining time in seconds =    38371.6883481296     
 Estimated remaining time in hh:mm:ss =   10 h 39 m 31 s
 Estimated total run time in seconds =    47135.2060785344     
 Estimated total run time in hh:mm:ss =   13 h 05 m 35 s
 We have done    18.59230     % of that
 The run will finish approximately on (in local time): Fri Dec 10, 2021 02:06
 
 
 Total number of receivers saved is           22  out of           22
 
 
 Writing the seismograms by master proc alone took   0.300519010401331      
  seconds
 
 
 Total number of receivers saved is           22  out of           22
 
 
 Writing the seismograms by master proc alone took   0.298108856019098      
  seconds
 
 
 Total number of receivers saved is           22  out of           22
 
 
 Writing the seismograms by master proc alone took   0.298885844007600      
  seconds
 
 
  Total number of time steps written:        14000
 
 Time step #        15000
 Time:    59.81609      minutes
 Max norm displacement vector U in solid in all slices (m) = 
   3.05680466352512     
 Max non-dimensional potential Ufluid in fluid in all slices = 
  1.846068247021555E-011
 Elapsed time in seconds =    9390.10155539517     
 Elapsed time in hh:mm:ss =    2 h 36 m 30 s
 Mean elapsed time per time step in seconds =   0.626006770359678     
 Time steps done =        15000  out of        75300
 Time steps remaining =        60300
 Estimated remaining time in seconds =    37748.2082526886     
 Estimated remaining time in hh:mm:ss =   10 h 29 m 08 s
 Estimated total run time in seconds =    47138.3098080838     
 Estimated total run time in hh:mm:ss =   13 h 05 m 38 s
 We have done    19.92032     % of that
 The run will finish approximately on (in local time): Fri Dec 10, 2021 02:05
 
 
 Total number of receivers saved is           22  out of           22
 
 
 Writing the seismograms by master proc alone took   0.301370607980061      
  seconds
 
 
 Total number of receivers saved is           22  out of           22
 
 
 Writing the seismograms by master proc alone took   0.298122040810995      
  seconds
 
 
 Total number of receivers saved is           22  out of           22
 
 
 Writing the seismograms by master proc alone took   0.297627184772864      
  seconds
 
 
  Total number of time steps written:        15000
 
 Time step #        16000
 Time:    63.80608      minutes
 Max norm displacement vector U in solid in all slices (m) = 
   3.05545019340896     
 Max non-dimensional potential Ufluid in fluid in all slices = 
  2.034995707453355E-011
 Elapsed time in seconds =    10016.4000378152     
 Elapsed time in hh:mm:ss =    2 h 46 m 56 s
 Mean elapsed time per time step in seconds =   0.626025002363447     
 Time steps done =        16000  out of        75300
 Time steps remaining =        59300
 Estimated remaining time in seconds =    37123.2826401524     
 Estimated remaining time in hh:mm:ss =   10 h 18 m 43 s
 Estimated total run time in seconds =    47139.6826779676     
 Estimated total run time in hh:mm:ss =   13 h 05 m 39 s
 We have done    21.24834     % of that
 The run will finish approximately on (in local time): Fri Dec 10, 2021 02:06
 
 
 Total number of receivers saved is           22  out of           22
 
 
 Writing the seismograms by master proc alone took   0.462975690374151      
  seconds
 
 
 Total number of receivers saved is           22  out of           22
 
 
 Writing the seismograms by master proc alone took   0.466504203213844      
  seconds
 
 
 Total number of receivers saved is           22  out of           22
 
 
 Writing the seismograms by master proc alone took   0.466504870448261      
  seconds
 
 
  Total number of time steps written:        16000
 
 Time step #        17000
 Time:    67.79608      minutes
 Max norm displacement vector U in solid in all slices (m) = 
   3.05572271644726     
 Max non-dimensional potential Ufluid in fluid in all slices = 
  2.145696554945044E-011
 Elapsed time in seconds =    10643.0250561336     
 Elapsed time in hh:mm:ss =    2 h 57 m 23 s
 Mean elapsed time per time step in seconds =   0.626060297419622     
 Time steps done =        17000  out of        75300
 Time steps remaining =        58300
 Estimated remaining time in seconds =    36499.3153395639     
 Estimated remaining time in hh:mm:ss =   10 h 08 m 19 s
 Estimated total run time in seconds =    47142.3403956975     
 Estimated total run time in hh:mm:ss =   13 h 05 m 42 s
 We have done    22.57636     % of that
 The run will finish approximately on (in local time): Fri Dec 10, 2021 02:05
 
 
 Total number of receivers saved is           22  out of           22
 
 
 Writing the seismograms by master proc alone took   0.300328011217061      
  seconds
 
 
 Total number of receivers saved is           22  out of           22
 
 
 Writing the seismograms by master proc alone took   0.300405548827257      
  seconds
 
 
 Total number of receivers saved is           22  out of           22
 
 
 Writing the seismograms by master proc alone took   0.300808022380807      
  seconds
 
 
  Total number of time steps written:        17000
 
 Time step #        18000
 Time:    71.78609      minutes
 Max norm displacement vector U in solid in all slices (m) = 
   3.05578998274943     
 Max non-dimensional potential Ufluid in fluid in all slices = 
  2.345848182207688E-011
 Elapsed time in seconds =    11269.2426117608     
 Elapsed time in hh:mm:ss =    3 h 07 m 49 s
 Mean elapsed time per time step in seconds =   0.626069033986711     
 Time steps done =        18000  out of        75300
 Time steps remaining =        57300
 Estimated remaining time in seconds =    35873.7556474385     
 Estimated remaining time in hh:mm:ss =    9 h 57 m 53 s
 Estimated total run time in seconds =    47142.9982591993     
 Estimated total run time in hh:mm:ss =   13 h 05 m 42 s
 We have done    23.90438     % of that
 The run will finish approximately on (in local time): Fri Dec 10, 2021 02:06
 
 
 Total number of receivers saved is           22  out of           22
 
 
 Writing the seismograms by master proc alone took   0.502665717562195      
  seconds
 
 
 Total number of receivers saved is           22  out of           22
 
 
 Writing the seismograms by master proc alone took   0.509897254407406      
  seconds
 
 
 Total number of receivers saved is           22  out of           22
 
 
 Writing the seismograms by master proc alone took   0.497749695961829      
  seconds
 
 
  Total number of time steps written:        18000
 
 Time step #        19000
 Time:    75.77608      minutes
 Max norm displacement vector U in solid in all slices (m) = 
   3.05322394999485     
 Max non-dimensional potential Ufluid in fluid in all slices = 
  2.348560947927032E-011
 Elapsed time in seconds =    11896.3324859799     
 Elapsed time in hh:mm:ss =    3 h 18 m 16 s
 Mean elapsed time per time step in seconds =   0.626122762419997     
 Time steps done =        19000  out of        75300
 Time steps remaining =        56300
 Estimated remaining time in seconds =    35250.7115242458     
 Estimated remaining time in hh:mm:ss =    9 h 47 m 30 s
 Estimated total run time in seconds =    47147.0440102258     
 Estimated total run time in hh:mm:ss =   13 h 05 m 47 s
 We have done    25.23240     % of that
 The run will finish approximately on (in local time): Fri Dec 10, 2021 02:06
 
 
 Total number of receivers saved is           22  out of           22
 
 
 Writing the seismograms by master proc alone took   0.305066130415071      
  seconds
 
 
 Total number of receivers saved is           22  out of           22
 
 
 Writing the seismograms by master proc alone took   0.298883046372794      
  seconds
 
 
 Total number of receivers saved is           22  out of           22
 
 
 Writing the seismograms by master proc alone took   0.298536278365646      
  seconds
 
 
  Total number of time steps written:        19000
 
 Time step #        20000
 Time:    79.76608      minutes
 Max norm displacement vector U in solid in all slices (m) = 
   3.05263025685362     
 Max non-dimensional potential Ufluid in fluid in all slices = 
  2.663344428546651E-011
 Elapsed time in seconds =    12522.7526884664     
 Elapsed time in hh:mm:ss =    3 h 28 m 42 s
 Mean elapsed time per time step in seconds =   0.626137634423320     
 Time steps done =        20000  out of        75300
 Time steps remaining =        55300
 Estimated remaining time in seconds =    34625.4111836096     
 Estimated remaining time in hh:mm:ss =    9 h 37 m 05 s
 Estimated total run time in seconds =    47148.1638720760     
 Estimated total run time in hh:mm:ss =   13 h 05 m 48 s
 We have done    26.56042     % of that
 The run will finish approximately on (in local time): Fri Dec 10, 2021 02:06
 
 
 Total number of receivers saved is           22  out of           22
 
 
 Writing the seismograms by master proc alone took   0.302779671212193      
  seconds
 
 
 Total number of receivers saved is           22  out of           22
 
 
 Writing the seismograms by master proc alone took   0.300759713631123      
  seconds
 
 
 Total number of receivers saved is           22  out of           22
 
 
 Writing the seismograms by master proc alone took   0.301108446379658      
  seconds
 
 
  Total number of time steps written:        20000
 
 Time step #        21000
 Time:    83.75609      minutes
 Max norm displacement vector U in solid in all slices (m) = 
   3.05752941419081     
 Max non-dimensional potential Ufluid in fluid in all slices = 
  3.289056608285123E-011
 Elapsed time in seconds =    13149.4725429728     
 Elapsed time in hh:mm:ss =    3 h 39 m 09 s
 Mean elapsed time per time step in seconds =   0.626165359189179     
 Time steps done =        21000  out of        75300
 Time steps remaining =        54300
 Estimated remaining time in seconds =    34000.7790039724     
 Estimated remaining time in hh:mm:ss =    9 h 26 m 40 s
 Estimated total run time in seconds =    47150.2515469452     
 Estimated total run time in hh:mm:ss =   13 h 05 m 50 s
 We have done    27.88845     % of that
 The run will finish approximately on (in local time): Fri Dec 10, 2021 02:06
 
 
 Total number of receivers saved is           22  out of           22
 
 
 Writing the seismograms by master proc alone took   0.513998337613884      
  seconds
 
 
 Total number of receivers saved is           22  out of           22
 
 
 Writing the seismograms by master proc alone took   0.518835467984900      
  seconds
 
 
 Total number of receivers saved is           22  out of           22
 
 
 Writing the seismograms by master proc alone took   0.532202928792685      
  seconds
 
 
  Total number of time steps written:        21000
 
 Time step #        22000
 Time:    87.74609      minutes
 Max norm displacement vector U in solid in all slices (m) = 
   3.05367976396046     
 Max non-dimensional potential Ufluid in fluid in all slices = 
  3.156324188690848E-011
 Elapsed time in seconds =    13776.3369827984     
 Elapsed time in hh:mm:ss =    3 h 49 m 36 s
 Mean elapsed time per time step in seconds =   0.626197135581743     
 Time steps done =        22000  out of        75300
 Time steps remaining =        53300
 Estimated remaining time in seconds =    33376.3073265069     
 Estimated remaining time in hh:mm:ss =    9 h 16 m 16 s
 Estimated total run time in seconds =    47152.6443093053     
 Estimated total run time in hh:mm:ss =   13 h 05 m 52 s
 We have done    29.21647     % of that
 The run will finish approximately on (in local time): Fri Dec 10, 2021 02:06
 
 
 Total number of receivers saved is           22  out of           22
 
 
 Writing the seismograms by master proc alone took   0.300955510407221      
  seconds
 
 
 Total number of receivers saved is           22  out of           22
 
 
 Writing the seismograms by master proc alone took   0.302630499994848      
  seconds
 
 
 Total number of receivers saved is           22  out of           22
 
 
 Writing the seismograms by master proc alone took   0.301828016818035      
  seconds
 
 
  Total number of time steps written:        22000
 
 Time step #        23000
 Time:    91.73608      minutes
 Max norm displacement vector U in solid in all slices (m) = 
   3.04937568924852     
 Max non-dimensional potential Ufluid in fluid in all slices = 
  3.431649401118235E-011
 Elapsed time in seconds =    14403.6589412192     
 Elapsed time in hh:mm:ss =    4 h 00 m 03 s
 Mean elapsed time per time step in seconds =   0.626246040922572     
 Time steps done =        23000  out of        75300
 Time steps remaining =        52300
 Estimated remaining time in seconds =    32752.6679402505     
 Estimated remaining time in hh:mm:ss =    9 h 05 m 52 s
 Estimated total run time in seconds =    47156.3268814697     
 Estimated total run time in hh:mm:ss =   13 h 05 m 56 s
 We have done    30.54449     % of that
 The run will finish approximately on (in local time): Fri Dec 10, 2021 02:06
 
 
 Total number of receivers saved is           22  out of           22
 
 
 Writing the seismograms by master proc alone took   0.302871535182931      
  seconds
 
 
 Total number of receivers saved is           22  out of           22
 
 
 Writing the seismograms by master proc alone took   0.303666210384108      
  seconds
 
 
 Total number of receivers saved is           22  out of           22
 
 
 Writing the seismograms by master proc alone took   0.302087785617914      
  seconds
 
 
  Total number of time steps written:        23000
 
 Time step #        24000
 Time:    95.72608      minutes
 Max norm displacement vector U in solid in all slices (m) = 
   3.05626283887283     
 Max non-dimensional potential Ufluid in fluid in all slices = 
  3.450924568956680E-011
 Elapsed time in seconds =    15029.6931408184     
 Elapsed time in hh:mm:ss =    4 h 10 m 29 s
 Mean elapsed time per time step in seconds =   0.626237214200766     
 Time steps done =        24000  out of        75300
 Time steps remaining =        51300
 Estimated remaining time in seconds =    32125.9690884993     
 Estimated remaining time in hh:mm:ss =    8 h 55 m 25 s
 Estimated total run time in seconds =    47155.6622293177     
 Estimated total run time in hh:mm:ss =   13 h 05 m 55 s
 We have done    31.87251     % of that
 The run will finish approximately on (in local time): Fri Dec 10, 2021 02:06
 
 
 Total number of receivers saved is           22  out of           22
 
 
 Writing the seismograms by master proc alone took   0.418725051160436      
  seconds
 
 
 Total number of receivers saved is           22  out of           22
 
 
 Writing the seismograms by master proc alone took   0.416772034426685      
  seconds
 
 
 Total number of receivers saved is           22  out of           22
 
 
 Writing the seismograms by master proc alone took   0.416595455957577      
  seconds
 
 
  Total number of time steps written:        24000
 
 Time step #        25000
 Time:    99.71609      minutes
 Max norm displacement vector U in solid in all slices (m) = 
   3.05841215999626     
 Max non-dimensional potential Ufluid in fluid in all slices = 
  4.055106839300347E-011
 Elapsed time in seconds =    15656.9014693208     
 Elapsed time in hh:mm:ss =    4 h 20 m 56 s
 Mean elapsed time per time step in seconds =   0.626276058772830     
 Time steps done =        25000  out of        75300
 Time steps remaining =        50300
 Estimated remaining time in seconds =    31501.6857562734     
 Estimated remaining time in hh:mm:ss =    8 h 45 m 01 s
 Estimated total run time in seconds =    47158.5872255941     
 Estimated total run time in hh:mm:ss =   13 h 05 m 58 s
 We have done    33.20053     % of that
 The run will finish approximately on (in local time): Fri Dec 10, 2021 02:06
 
 
 Total number of receivers saved is           22  out of           22
 
 
 Writing the seismograms by master proc alone took   0.301556838443503      
  seconds
 
 
 Total number of receivers saved is           22  out of           22
 
 
 Writing the seismograms by master proc alone took   0.301001711166464      
  seconds
 
 
 Total number of receivers saved is           22  out of           22
 
 
 Writing the seismograms by master proc alone took   0.299879488826264      
  seconds
 
 
  Total number of time steps written:        25000
 
 Time step #        26000
 Time:    103.7061      minutes
 Max norm displacement vector U in solid in all slices (m) = 
   3.05937489278047     
 Max non-dimensional potential Ufluid in fluid in all slices = 
  4.147892697316066E-011
 Elapsed time in seconds =    16282.6834330024     
 Elapsed time in hh:mm:ss =    4 h 31 m 22 s
 Mean elapsed time per time step in seconds =   0.626257055115476     
 Time steps done =        26000  out of        75300
 Time steps remaining =        49300
 Estimated remaining time in seconds =    30874.4728171930     
 Estimated remaining time in hh:mm:ss =    8 h 34 m 34 s
 Estimated total run time in seconds =    47157.1562501954     
 Estimated total run time in hh:mm:ss =   13 h 05 m 57 s
 We have done    34.52855     % of that
 The run will finish approximately on (in local time): Fri Dec 10, 2021 02:07
 
 
 Total number of receivers saved is           22  out of           22
 
 
 Writing the seismograms by master proc alone took   0.454535431985278      
  seconds
 
 
 Total number of receivers saved is           22  out of           22
 
 
 Writing the seismograms by master proc alone took   0.451650387200061      
  seconds
 
 
 Total number of receivers saved is           22  out of           22
 
 
 Writing the seismograms by master proc alone took   0.451493455213495      
  seconds
 
 
  Total number of time steps written:        26000
 
 Time step #        27000
 Time:    107.6961      minutes
 Max norm displacement vector U in solid in all slices (m) = 
   3.06108876699399     
 Max non-dimensional potential Ufluid in fluid in all slices = 
  4.193845588873104E-011
 Elapsed time in seconds =    16910.1066191552     
 Elapsed time in hh:mm:ss =    4 h 41 m 50 s
 Mean elapsed time per time step in seconds =   0.626300245153894     
 Time steps done =        27000  out of        75300
 Time steps remaining =        48300
 Estimated remaining time in seconds =    30250.3018409331     
 Estimated remaining time in hh:mm:ss =    8 h 24 m 10 s
 Estimated total run time in seconds =    47160.4084600883     
 Estimated total run time in hh:mm:ss =   13 h 06 m 00 s
 We have done    35.85658     % of that
 The run will finish approximately on (in local time): Fri Dec 10, 2021 02:06
 
 
 Total number of receivers saved is           22  out of           22
 
 
 Writing the seismograms by master proc alone took   0.319435646408238      
  seconds
 
 
 Total number of receivers saved is           22  out of           22
 
 
 Writing the seismograms by master proc alone took   0.300874685577583      
  seconds
 
 
 Total number of receivers saved is           22  out of           22
 
 
 Writing the seismograms by master proc alone took   0.301060930418316      
  seconds
 
 
  Total number of time steps written:        27000
 
 Time step #        28000
 Time:    111.6861      minutes
 Max norm displacement vector U in solid in all slices (m) = 
   3.05933211443672     
 Max non-dimensional potential Ufluid in fluid in all slices = 
  4.932100559078476E-011
 Elapsed time in seconds =    17537.1393269128     
 Elapsed time in hh:mm:ss =    4 h 52 m 17 s
 Mean elapsed time per time step in seconds =   0.626326404532598     
 Time steps done =        28000  out of        75300
 Time steps remaining =        47300
 Estimated remaining time in seconds =    29625.2389343919     
 Estimated remaining time in hh:mm:ss =    8 h 13 m 45 s
 Estimated total run time in seconds =    47162.3782613047     
 Estimated total run time in hh:mm:ss =   13 h 06 m 02 s
 We have done    37.18459     % of that
 The run will finish approximately on (in local time): Fri Dec 10, 2021 02:06
 
 
 Total number of receivers saved is           22  out of           22
 
 
 Writing the seismograms by master proc alone took   0.301477021595929      
  seconds
 
 
 Total number of receivers saved is           22  out of           22
 
 
 Writing the seismograms by master proc alone took   0.300719141610898      
  seconds
 
 
 Total number of receivers saved is           22  out of           22
 
 
 Writing the seismograms by master proc alone took   0.299695271998644      
  seconds
 
 
  Total number of time steps written:        28000
 
 Time step #        29000
 Time:    115.6761      minutes
 Max norm displacement vector U in solid in all slices (m) = 
   3.06216732995116     
 Max non-dimensional potential Ufluid in fluid in all slices = 
  4.853567162128411E-011
 Elapsed time in seconds =    18164.1445300296     
 Elapsed time in hh:mm:ss =    5 h 02 m 44 s
 Mean elapsed time per time step in seconds =   0.626349811380330     
 Time steps done =        29000  out of        75300
 Time steps remaining =        46300
 Estimated remaining time in seconds =    28999.9962669093     
 Estimated remaining time in hh:mm:ss =    8 h 03 m 19 s
 Estimated total run time in seconds =    47164.1407969388     
 Estimated total run time in hh:mm:ss =   13 h 06 m 04 s
 We have done    38.51262     % of that
 The run will finish approximately on (in local time): Fri Dec 10, 2021 02:06
 
 
 Total number of receivers saved is           22  out of           22
 
 
 Writing the seismograms by master proc alone took   0.428024831984658      
  seconds
 
 
 Total number of receivers saved is           22  out of           22
 
 
 Writing the seismograms by master proc alone took   0.424430467188358      
  seconds
 
 
 Total number of receivers saved is           22  out of           22
 
 
 Writing the seismograms by master proc alone took   0.423866427969187      
  seconds
 
 
  Total number of time steps written:        29000
 
 Time step #        30000
 Time:    119.6661      minutes
 Max norm displacement vector U in solid in all slices (m) = 
   3.05916589336640     
 Max non-dimensional potential Ufluid in fluid in all slices = 
  4.900095955363382E-011
 Elapsed time in seconds =    18791.0013478592     
 Elapsed time in hh:mm:ss =    5 h 13 m 11 s
 Mean elapsed time per time step in seconds =   0.626366711595305     
 Time steps done =        30000  out of        75300
 Time steps remaining =        45300
 Estimated remaining time in seconds =    28374.4120352673     
 Estimated remaining time in hh:mm:ss =    7 h 52 m 54 s
 Estimated total run time in seconds =    47165.4133831265     
 Estimated total run time in hh:mm:ss =   13 h 06 m 05 s
 We have done    39.84064     % of that
 The run will finish approximately on (in local time): Fri Dec 10, 2021 02:06
 
 
 Total number of receivers saved is           22  out of           22
 
 
 Writing the seismograms by master proc alone took   0.302309778402559      
  seconds
 
 
 Total number of receivers saved is           22  out of           22
 
 
 Writing the seismograms by master proc alone took   0.301239627180621      
  seconds
 
 
 Total number of receivers saved is           22  out of           22
 
 
 Writing the seismograms by master proc alone took   0.300608880002983      
  seconds
 
 
  Total number of time steps written:        30000
 
 Time step #        31000
 Time:    123.6561      minutes
 Max norm displacement vector U in solid in all slices (m) = 
   3.05107244607531     
 Max non-dimensional potential Ufluid in fluid in all slices = 
  5.752536592353220E-011
 Elapsed time in seconds =    19417.6888292856     
 Elapsed time in hh:mm:ss =    5 h 23 m 37 s
 Mean elapsed time per time step in seconds =   0.626377059009212     
 Time steps done =        31000  out of        75300
 Time steps remaining =        44300
 Estimated remaining time in seconds =    27748.5037141081     
 Estimated remaining time in hh:mm:ss =    7 h 42 m 28 s
 Estimated total run time in seconds =    47166.1925433936     
 Estimated total run time in hh:mm:ss =   13 h 06 m 06 s
 We have done    41.16866     % of that
 The run will finish approximately on (in local time): Fri Dec 10, 2021 02:06
 
 
 Total number of receivers saved is           22  out of           22
 
 
 Writing the seismograms by master proc alone took   0.464170979219489      
  seconds
 
 
 Total number of receivers saved is           22  out of           22
 
 
 Writing the seismograms by master proc alone took   0.457799413590692      
  seconds
 
 
 Total number of receivers saved is           22  out of           22
 
 
 Writing the seismograms by master proc alone took   0.457721757586114      
  seconds
 
 
  Total number of time steps written:        31000
 
 Time step #        32000
 Time:    127.6461      minutes
 Max norm displacement vector U in solid in all slices (m) = 
   3.06153602422587     
 Max non-dimensional potential Ufluid in fluid in all slices = 
  5.510968631394776E-011
 Elapsed time in seconds =    20044.9848678064     
 Elapsed time in hh:mm:ss =    5 h 34 m 04 s
 Mean elapsed time per time step in seconds =   0.626405777118949     
 Time steps done =        32000  out of        75300
 Time steps remaining =        43300
 Estimated remaining time in seconds =    27123.3701492505     
 Estimated remaining time in hh:mm:ss =    7 h 32 m 03 s
 Estimated total run time in seconds =    47168.3550170569     
 Estimated total run time in hh:mm:ss =   13 h 06 m 08 s
 We have done    42.49668     % of that
 The run will finish approximately on (in local time): Fri Dec 10, 2021 02:06
 
 
 Total number of receivers saved is           22  out of           22
 
 
 Writing the seismograms by master proc alone took   0.303180254413746      
  seconds
 
 
 Total number of receivers saved is           22  out of           22
 
 
 Writing the seismograms by master proc alone took   0.301266237627715      
  seconds
 
 
 Total number of receivers saved is           22  out of           22
 
 
 Writing the seismograms by master proc alone took   0.301359045610297      
  seconds
 
 
  Total number of time steps written:        32000
 
 Time step #        33000
 Time:    131.6361      minutes
 Max norm displacement vector U in solid in all slices (m) = 
   3.06596797791425     
 Max non-dimensional potential Ufluid in fluid in all slices = 
  5.637152668061966E-011
 Elapsed time in seconds =    20671.0546228600     
 Elapsed time in hh:mm:ss =    5 h 44 m 31 s
 Mean elapsed time per time step in seconds =   0.626395594632121     
 Time steps done =        33000  out of        75300
 Time steps remaining =        42300
 Estimated remaining time in seconds =    26496.5336529387     
 Estimated remaining time in hh:mm:ss =    7 h 21 m 36 s
 Estimated total run time in seconds =    47167.5882757987     
 Estimated total run time in hh:mm:ss =   13 h 06 m 07 s
 We have done    43.82470     % of that
 The run will finish approximately on (in local time): Fri Dec 10, 2021 02:07
 
 
 Total number of receivers saved is           22  out of           22
 
 
 Writing the seismograms by master proc alone took   0.303175631212071      
  seconds
 
 
 Total number of receivers saved is           22  out of           22
 
 
 Writing the seismograms by master proc alone took   0.301627715234645      
  seconds
 
 
 Total number of receivers saved is           22  out of           22
 
 
 Writing the seismograms by master proc alone took   0.301328292000107      
  seconds
 
 
  Total number of time steps written:        33000
 
 Time step #        34000
 Time:    135.6261      minutes
 Max norm displacement vector U in solid in all slices (m) = 
   3.04777334929345     
 Max non-dimensional potential Ufluid in fluid in all slices = 
  6.334615025350416E-011
 Elapsed time in seconds =    21297.0173003224     
 Elapsed time in hh:mm:ss =    5 h 54 m 57 s
 Mean elapsed time per time step in seconds =   0.626382861774187     
 Time steps done =        34000  out of        75300
 Time steps remaining =        41300
 Estimated remaining time in seconds =    25869.6121912739     
 Estimated remaining time in hh:mm:ss =    7 h 11 m 09 s
 Estimated total run time in seconds =    47166.6294915963     
 Estimated total run time in hh:mm:ss =   13 h 06 m 06 s
 We have done    45.15272     % of that
 The run will finish approximately on (in local time): Fri Dec 10, 2021 02:06
 
 
 Total number of receivers saved is           22  out of           22
 
 
 Writing the seismograms by master proc alone took   0.434111100796144      
  seconds
 
 
 Total number of receivers saved is           22  out of           22
 
 
 Writing the seismograms by master proc alone took   0.427981149579864      
  seconds
 
 
 Total number of receivers saved is           22  out of           22
 
 
 Writing the seismograms by master proc alone took   0.425081064808182      
  seconds
 
 
  Total number of time steps written:        34000
 
 Time step #        35000
 Time:    139.6161      minutes
 Max norm displacement vector U in solid in all slices (m) = 
   3.05256941744525     
 Max non-dimensional potential Ufluid in fluid in all slices = 
  6.564311777662308E-011
 Elapsed time in seconds =    21923.8496942848     
 Elapsed time in hh:mm:ss =    6 h 05 m 23 s
 Mean elapsed time per time step in seconds =   0.626395705550994     
 Time steps done =        35000  out of        75300
 Time steps remaining =        40300
 Estimated remaining time in seconds =    25243.7469337051     
 Estimated remaining time in hh:mm:ss =    7 h 00 m 43 s
 Estimated total run time in seconds =    47167.5966279898     
 Estimated total run time in hh:mm:ss =   13 h 06 m 07 s
 We have done    46.48074     % of that
 The run will finish approximately on (in local time): Fri Dec 10, 2021 02:07
 
 
 Total number of receivers saved is           22  out of           22
 
 
 Writing the seismograms by master proc alone took   0.302588360034861      
  seconds
 
 
 Total number of receivers saved is           22  out of           22
 
 
 Writing the seismograms by master proc alone took   0.301467488752678      
  seconds
 
 
 Total number of receivers saved is           22  out of           22
 
 
 Writing the seismograms by master proc alone took   0.301471277605742      
  seconds
 
 
  Total number of time steps written:        35000
 
 Time step #        36000
 Time:    143.6061      minutes
 Max norm displacement vector U in solid in all slices (m) = 
   3.05632330142230     
 Max non-dimensional potential Ufluid in fluid in all slices = 
  6.951727810996901E-011
 Elapsed time in seconds =    22550.3511266840     
 Elapsed time in hh:mm:ss =    6 h 15 m 50 s
 Mean elapsed time per time step in seconds =   0.626398642407889     
 Time steps done =        36000  out of        75300
 Time steps remaining =        39300
 Estimated remaining time in seconds =    24617.4666466300     
 Estimated remaining time in hh:mm:ss =    6 h 50 m 17 s
 Estimated total run time in seconds =    47167.8177733140     
 Estimated total run time in hh:mm:ss =   13 h 06 m 07 s
 We have done    47.80877     % of that
 The run will finish approximately on (in local time): Fri Dec 10, 2021 02:06
 
 
 Total number of receivers saved is           22  out of           22
 
 
 Writing the seismograms by master proc alone took   0.463277294416912      
  seconds
 
 
 Total number of receivers saved is           22  out of           22
 
 
 Writing the seismograms by master proc alone took   0.460221965564415      
  seconds
 
 
 Total number of receivers saved is           22  out of           22
 
 
 Writing the seismograms by master proc alone took   0.460572491982020      
  seconds
 
 
  Total number of time steps written:        36000
 
 Time step #        37000
 Time:    147.5961      minutes
 Max norm displacement vector U in solid in all slices (m) = 
   3.04833016634745     
 Max non-dimensional potential Ufluid in fluid in all slices = 
  7.378103515213172E-011
 Elapsed time in seconds =    23177.4412072368     
 Elapsed time in hh:mm:ss =    6 h 26 m 17 s
 Mean elapsed time per time step in seconds =   0.626417329925319     
 Time steps done =        37000  out of        75300
 Time steps remaining =        38300
 Estimated remaining time in seconds =    23991.7837361397     
 Estimated remaining time in hh:mm:ss =    6 h 39 m 51 s
 Estimated total run time in seconds =    47169.2249433765     
 Estimated total run time in hh:mm:ss =   13 h 06 m 09 s
 We have done    49.13679     % of that
 The run will finish approximately on (in local time): Fri Dec 10, 2021 02:07
 
 
 Total number of receivers saved is           22  out of           22
 
 
 Writing the seismograms by master proc alone took   0.304158082406502      
  seconds
 
 
 Total number of receivers saved is           22  out of           22
 
 
 Writing the seismograms by master proc alone took   0.302969968761317      
  seconds
 
 
 Total number of receivers saved is           22  out of           22
 
 
 Writing the seismograms by master proc alone took   0.302975411177613      
  seconds
 
 
  Total number of time steps written:        37000
 
 Time step #        38000
 Time:    151.5861      minutes
 Max norm displacement vector U in solid in all slices (m) = 
   3.05631658268786     
 Max non-dimensional potential Ufluid in fluid in all slices = 
  7.805992022334398E-011
 Elapsed time in seconds =    23803.3971576472     
 Elapsed time in hh:mm:ss =    6 h 36 m 43 s
 Mean elapsed time per time step in seconds =   0.626405188359136     
 Time steps done =        38000  out of        75300
 Time steps remaining =        37300
 Estimated remaining time in seconds =    23364.9135257958     
 Estimated remaining time in hh:mm:ss =    6 h 29 m 24 s
 Estimated total run time in seconds =    47168.3106834430     
 Estimated total run time in hh:mm:ss =   13 h 06 m 08 s
 We have done    50.46481     % of that
 The run will finish approximately on (in local time): Fri Dec 10, 2021 02:06
 
 
 Total number of receivers saved is           22  out of           22
 
 
 Writing the seismograms by master proc alone took   0.303939602395985      
  seconds
 
 
 Total number of receivers saved is           22  out of           22
 
 
 Writing the seismograms by master proc alone took   0.300903537601698      
  seconds
 
 
 Total number of receivers saved is           22  out of           22
 
 
 Writing the seismograms by master proc alone took   0.300794082402717      
  seconds
 
 
  Total number of time steps written:        38000
 
 Time step #        39000
 Time:    155.5761      minutes
 Max norm displacement vector U in solid in all slices (m) = 
   3.05128138001017     
 Max non-dimensional potential Ufluid in fluid in all slices = 
  8.144552662124626E-011
 Elapsed time in seconds =    24429.5967660840     
 Elapsed time in hh:mm:ss =    6 h 47 m 09 s
 Mean elapsed time per time step in seconds =   0.626399917079076     
 Time steps done =        39000  out of        75300
 Time steps remaining =        36300
 Estimated remaining time in seconds =    22738.3169899705     
 Estimated remaining time in hh:mm:ss =    6 h 18 m 58 s
 Estimated total run time in seconds =    47167.9137560544     
 Estimated total run time in hh:mm:ss =   13 h 06 m 07 s
 We have done    51.79283     % of that
 The run will finish approximately on (in local time): Fri Dec 10, 2021 02:07
 
 
 Total number of receivers saved is           22  out of           22
 
 
 Writing the seismograms by master proc alone took   0.435833178402390      
  seconds
 
 
 Total number of receivers saved is           22  out of           22
 
 
 Writing the seismograms by master proc alone took   0.431799286394380      
  seconds
 
 
 Total number of receivers saved is           22  out of           22
 
 
 Writing the seismograms by master proc alone took   0.431501931976527      
  seconds
 
 
  Total number of time steps written:        39000
 
 Time step #        40000
 Time:    159.5661      minutes
 Max norm displacement vector U in solid in all slices (m) = 
   3.05270612872269     
 Max non-dimensional potential Ufluid in fluid in all slices = 
  8.422719916518238E-011
 Elapsed time in seconds =    25055.8945509391     
 Elapsed time in hh:mm:ss =    6 h 57 m 35 s
 Mean elapsed time per time step in seconds =   0.626397363773479     
 Time steps done =        40000  out of        75300
 Time steps remaining =        35300
 Estimated remaining time in seconds =    22111.8269412038     
 Estimated remaining time in hh:mm:ss =    6 h 08 m 31 s
 Estimated total run time in seconds =    47167.7214921429     
 Estimated total run time in hh:mm:ss =   13 h 06 m 07 s
 We have done    53.12085     % of that
 The run will finish approximately on (in local time): Fri Dec 10, 2021 02:07
 
 
 Total number of receivers saved is           22  out of           22
 
 
 Writing the seismograms by master proc alone took   0.306155320780817      
  seconds
 
 
 Total number of receivers saved is           22  out of           22
 
 
 Writing the seismograms by master proc alone took   0.304240759229288      
  seconds
 
 
 Total number of receivers saved is           22  out of           22
 
 
 Writing the seismograms by master proc alone took   0.305121995159425      
  seconds
 
 
  Total number of time steps written:        40000
 
 Time step #        41000
 Time:    163.5561      minutes
 Max norm displacement vector U in solid in all slices (m) = 
   3.05511600788136     
 Max non-dimensional potential Ufluid in fluid in all slices = 
  8.763746615582068E-011
 Elapsed time in seconds =    25681.6285683112     
 Elapsed time in hh:mm:ss =    7 h 08 m 01 s
 Mean elapsed time per time step in seconds =   0.626381184592955     
 Time steps done =        41000  out of        75300
 Time steps remaining =        34300
 Estimated remaining time in seconds =    21484.8746315384     
 Estimated remaining time in hh:mm:ss =    5 h 58 m 04 s
 Estimated total run time in seconds =    47166.5031998495     
 Estimated total run time in hh:mm:ss =   13 h 06 m 06 s
 We have done    54.44887     % of that
 The run will finish approximately on (in local time): Fri Dec 10, 2021 02:07
 
 
 Total number of receivers saved is           22  out of           22
 
 
 Writing the seismograms by master proc alone took   0.308165114372969      
  seconds
 
 
 Total number of receivers saved is           22  out of           22
 
 
 Writing the seismograms by master proc alone took   0.305554475227837      
  seconds
 
 
 Total number of receivers saved is           22  out of           22
 
 
 Writing the seismograms by master proc alone took   0.305082227161620      
  seconds
 
 
  Total number of time steps written:        41000
 
 Time step #        42000
 Time:    167.5461      minutes
 Max norm displacement vector U in solid in all slices (m) = 
   3.05583076260892     
 Max non-dimensional potential Ufluid in fluid in all slices = 
  9.301380787716489E-011
 Elapsed time in seconds =    26307.7342367696     
 Elapsed time in hh:mm:ss =    7 h 18 m 27 s
 Mean elapsed time per time step in seconds =   0.626374624684989     
 Time steps done =        42000  out of        75300
 Time steps remaining =        33300
 Estimated remaining time in seconds =    20858.2750020101     
 Estimated remaining time in hh:mm:ss =    5 h 47 m 38 s
 Estimated total run time in seconds =    47166.0092387797     
 Estimated total run time in hh:mm:ss =   13 h 06 m 06 s
 We have done    55.77689     % of that
 The run will finish approximately on (in local time): Fri Dec 10, 2021 02:07
 
 
 Total number of receivers saved is           22  out of           22
 
 
 Writing the seismograms by master proc alone took   0.410350764810573      
  seconds
 
 
 Total number of receivers saved is           22  out of           22
 
 
 Writing the seismograms by master proc alone took   0.406732895993628      
  seconds
 
 
 Total number of receivers saved is           22  out of           22
 
 
 Writing the seismograms by master proc alone took   0.406193405622616      
  seconds
 
 
  Total number of time steps written:        42000
 
 Time step #        43000
 Time:    171.5361      minutes
 Max norm displacement vector U in solid in all slices (m) = 
   3.05585269309660     
 Max non-dimensional potential Ufluid in fluid in all slices = 
  9.404308688245335E-011
 Elapsed time in seconds =    26934.0272582007     
 Elapsed time in hh:mm:ss =    7 h 28 m 54 s
 Mean elapsed time per time step in seconds =   0.626372726934901     
 Time steps done =        43000  out of        75300
 Time steps remaining =        32300
 Estimated remaining time in seconds =    20231.8390799973     
 Estimated remaining time in hh:mm:ss =    5 h 37 m 11 s
 Estimated total run time in seconds =    47165.8663381981     
 Estimated total run time in hh:mm:ss =   13 h 06 m 05 s
 We have done    57.10491     % of that
 The run will finish approximately on (in local time): Fri Dec 10, 2021 02:06
 
 
 Total number of receivers saved is           22  out of           22
 
 
 Writing the seismograms by master proc alone took   0.310228305635974      
  seconds
 
 
 Total number of receivers saved is           22  out of           22
 
 
 Writing the seismograms by master proc alone took   0.307574271224439      
  seconds
 
 
 Total number of receivers saved is           22  out of           22
 
 
 Writing the seismograms by master proc alone took   0.305989075975958      
  seconds
 
 
  Total number of time steps written:        43000
 
 Time step #        44000
 Time:    175.5261      minutes
 Max norm displacement vector U in solid in all slices (m) = 
   3.05048160263083     
 Max non-dimensional potential Ufluid in fluid in all slices = 
  9.810034680802918E-011
 Elapsed time in seconds =    27560.6970613320     
 Elapsed time in hh:mm:ss =    7 h 39 m 20 s
 Mean elapsed time per time step in seconds =   0.626379478666636     
 Time steps done =        44000  out of        75300
 Time steps remaining =        31300
 Estimated remaining time in seconds =    19605.6776822657     
 Estimated remaining time in hh:mm:ss =    5 h 26 m 45 s
 Estimated total run time in seconds =    47166.3747435977     
 Estimated total run time in hh:mm:ss =   13 h 06 m 06 s
 We have done    58.43293     % of that
 The run will finish approximately on (in local time): Fri Dec 10, 2021 02:07
 
 
 Total number of receivers saved is           22  out of           22
 
 
 Writing the seismograms by master proc alone took   0.446479540783912      
  seconds
 
 
 Total number of receivers saved is           22  out of           22
 
 
 Writing the seismograms by master proc alone took   0.441539662424475      
  seconds
 
 
 Total number of receivers saved is           22  out of           22
 
 
 Writing the seismograms by master proc alone took   0.441144216805696      
  seconds
 
 
  Total number of time steps written:        44000
 
 Time step #        45000
 Time:    179.5161      minutes
 Max norm displacement vector U in solid in all slices (m) = 
   3.04907466349262     
 Max non-dimensional potential Ufluid in fluid in all slices = 
  1.054992823354635E-010
 Elapsed time in seconds =    28187.6689614416     
 Elapsed time in hh:mm:ss =    7 h 49 m 47 s
 Mean elapsed time per time step in seconds =   0.626392643587590     
 Time steps done =        45000  out of        75300
 Time steps remaining =        30300
 Estimated remaining time in seconds =    18979.6971007040     
 Estimated remaining time in hh:mm:ss =    5 h 16 m 19 s
 Estimated total run time in seconds =    47167.3660621455     
 Estimated total run time in hh:mm:ss =   13 h 06 m 07 s
 We have done    59.76096     % of that
 The run will finish approximately on (in local time): Fri Dec 10, 2021 02:06
 
 
 Total number of receivers saved is           22  out of           22
 
 
 Writing the seismograms by master proc alone took   0.303673134418204      
  seconds
 
 
 Total number of receivers saved is           22  out of           22
 
 
 Writing the seismograms by master proc alone took   0.303205438365694      
  seconds
 
 
 Total number of receivers saved is           22  out of           22
 
 
 Writing the seismograms by master proc alone took   0.302272103202995      
  seconds
 
 
  Total number of time steps written:        45000
 
 Time step #        46000
 Time:    183.5061      minutes
 Max norm displacement vector U in solid in all slices (m) = 
   3.05666699341683     
 Max non-dimensional potential Ufluid in fluid in all slices = 
  1.117995747437728E-010
 Elapsed time in seconds =    28813.6745863112     
 Elapsed time in hh:mm:ss =    8 h 00 m 13 s
 Mean elapsed time per time step in seconds =   0.626384230137199     
 Time steps done =        46000  out of        75300
 Time steps remaining =        29300
 Estimated remaining time in seconds =    18353.0579430199     
 Estimated remaining time in hh:mm:ss =    5 h 05 m 53 s
 Estimated total run time in seconds =    47166.7325293311     
 Estimated total run time in hh:mm:ss =   13 h 06 m 06 s
 We have done    61.08898     % of that
 The run will finish approximately on (in local time): Fri Dec 10, 2021 02:07
 
 
 Total number of receivers saved is           22  out of           22
 
 
 Writing the seismograms by master proc alone took   0.302895654400345      
  seconds
 
 
 Total number of receivers saved is           22  out of           22
 
 
 Writing the seismograms by master proc alone took   0.302901897579432      
  seconds
 
 
 Total number of receivers saved is           22  out of           22
 
 
 Writing the seismograms by master proc alone took   0.299676546419505      
  seconds
 
 
  Total number of time steps written:        46000
 
 Time step #        47000
 Time:    187.4961      minutes
 Max norm displacement vector U in solid in all slices (m) = 
   3.05284574093303     
 Max non-dimensional potential Ufluid in fluid in all slices = 
  1.134598277159586E-010
 Elapsed time in seconds =    29440.1477290952     
 Elapsed time in hh:mm:ss =    8 h 10 m 40 s
 Mean elapsed time per time step in seconds =   0.626386121895642     
 Time steps done =        47000  out of        75300
 Time steps remaining =        28300
 Estimated remaining time in seconds =    17726.7272496467     
 Estimated remaining time in hh:mm:ss =    4 h 55 m 26 s
 Estimated total run time in seconds =    47166.8749787419     
 Estimated total run time in hh:mm:ss =   13 h 06 m 06 s
 We have done    62.41700     % of that
 The run will finish approximately on (in local time): Fri Dec 10, 2021 02:06
 
 
 Total number of receivers saved is           22  out of           22
 
 
 Writing the seismograms by master proc alone took   0.414566547959112      
  seconds
 
 
 Total number of receivers saved is           22  out of           22
 
 
 Writing the seismograms by master proc alone took   0.411970658402424      
  seconds
 
 
 Total number of receivers saved is           22  out of           22
 
 
 Writing the seismograms by master proc alone took   0.412161411193665      
  seconds
 
 
  Total number of time steps written:        47000
 
 Time step #        48000
 Time:    191.4861      minutes
 Max norm displacement vector U in solid in all slices (m) = 
   3.05470959885956     
 Max non-dimensional potential Ufluid in fluid in all slices = 
  1.183482046515230E-010
 Elapsed time in seconds =    30066.0511639912     
 Elapsed time in hh:mm:ss =    8 h 21 m 06 s
 Mean elapsed time per time step in seconds =   0.626376065916482     
 Time steps done =        48000  out of        75300
 Time steps remaining =        27300
 Estimated remaining time in seconds =    17100.0665995200     
 Estimated remaining time in hh:mm:ss =    4 h 45 m 00 s
 Estimated total run time in seconds =    47166.1177635111     
 Estimated total run time in hh:mm:ss =   13 h 06 m 06 s
 We have done    63.74502     % of that
 The run will finish approximately on (in local time): Fri Dec 10, 2021 02:07
 
 
 Total number of receivers saved is           22  out of           22
 
 
 Writing the seismograms by master proc alone took   0.304988328833133      
  seconds
 
 
 Total number of receivers saved is           22  out of           22
 
 
 Writing the seismograms by master proc alone took   0.305141136806924      
  seconds
 
 
 Total number of receivers saved is           22  out of           22
 
 
 Writing the seismograms by master proc alone took   0.304449729621410      
  seconds
 
 
  Total number of time steps written:        48000
 
 Time step #        49000
 Time:    195.4761      minutes
 Max norm displacement vector U in solid in all slices (m) = 
   3.05453865732815     
 Max non-dimensional potential Ufluid in fluid in all slices = 
  1.223556783141409E-010
 Elapsed time in seconds =    30692.6708807432     
 Elapsed time in hh:mm:ss =    8 h 31 m 32 s
 Mean elapsed time per time step in seconds =   0.626381038382514     
 Time steps done =        49000  out of        75300
 Time steps remaining =        26300
 Estimated remaining time in seconds =    16473.8213094601     
 Estimated remaining time in hh:mm:ss =    4 h 34 m 33 s
 Estimated total run time in seconds =    47166.4921902033     
 Estimated total run time in hh:mm:ss =   13 h 06 m 06 s
 We have done    65.07304     % of that
 The run will finish approximately on (in local time): Fri Dec 10, 2021 02:07
 
 
 Total number of receivers saved is           22  out of           22
 
 
 Writing the seismograms by master proc alone took   0.447710270411335      
  seconds
 
 
 Total number of receivers saved is           22  out of           22
 
 
 Writing the seismograms by master proc alone took   0.444572334410623      
  seconds
 
 
 Total number of receivers saved is           22  out of           22
 
 
 Writing the seismograms by master proc alone took   0.445560293563176      
  seconds
 
 
  Total number of time steps written:        49000
 
 Time step #        50000
 Time:    199.4661      minutes
 Max norm displacement vector U in solid in all slices (m) = 
   3.05552205309372     
 Max non-dimensional potential Ufluid in fluid in all slices = 
  1.255292257232871E-010
 Elapsed time in seconds =    31319.3332986584     
 Elapsed time in hh:mm:ss =    8 h 41 m 59 s
 Mean elapsed time per time step in seconds =   0.626386665973167     
 Time steps done =        50000  out of        75300
 Time steps remaining =        25300
 Estimated remaining time in seconds =    15847.5826491211     
 Estimated remaining time in hh:mm:ss =    4 h 24 m 07 s
 Estimated total run time in seconds =    47166.9159477795     
 Estimated total run time in hh:mm:ss =   13 h 06 m 06 s
 We have done    66.40106     % of that
 The run will finish approximately on (in local time): Fri Dec 10, 2021 02:07
 
 
 Total number of receivers saved is           22  out of           22
 
 
 Writing the seismograms by master proc alone took   0.305728576029651      
  seconds
 
 
 Total number of receivers saved is           22  out of           22
 
 
 Writing the seismograms by master proc alone took   0.304610967170447      
  seconds
 
 
 Total number of receivers saved is           22  out of           22
 
 
 Writing the seismograms by master proc alone took   0.304968336015008      
  seconds
 
 
  Total number of time steps written:        50000
 
 Time step #        51000
 Time:    203.4561      minutes
 Max norm displacement vector U in solid in all slices (m) = 
   3.05655909726695     
 Max non-dimensional potential Ufluid in fluid in all slices = 
  1.317641879004808E-010
 Elapsed time in seconds =    31945.6105662400     
 Elapsed time in hh:mm:ss =    8 h 52 m 25 s
 Mean elapsed time per time step in seconds =   0.626384520906666     
 Time steps done =        51000  out of        75300
 Time steps remaining =        24300
 Estimated remaining time in seconds =    15221.1438580320     
 Estimated remaining time in hh:mm:ss =    4 h 13 m 41 s
 Estimated total run time in seconds =    47166.7544242720     
 Estimated total run time in hh:mm:ss =   13 h 06 m 06 s
 We have done    67.72908     % of that
 The run will finish approximately on (in local time): Fri Dec 10, 2021 02:07
 
 
 Total number of receivers saved is           22  out of           22
 
 
 Writing the seismograms by master proc alone took   0.306535356037784      
  seconds
 
 
 Total number of receivers saved is           22  out of           22
 
 
 Writing the seismograms by master proc alone took   0.304916538414545      
  seconds
 
 
 Total number of receivers saved is           22  out of           22
 
 
 Writing the seismograms by master proc alone took   0.304038316768128      
  seconds
 
 
  Total number of time steps written:        51000
 
 Time step #        52000
 Time:    207.4461      minutes
[...]
  seconds
 
 
 Total number of receivers saved is           22  out of           22
 
 
 Writing the seismograms by master proc alone took   0.434126727166586      
  seconds
 
 
  Total number of time steps written:        62000
 
 Time step #        63000
 Time:    251.3361      minutes
 Max norm displacement vector U in solid in all slices (m) = 
   3.05666953639015     
 Max non-dimensional potential Ufluid in fluid in all slices = 
  1.982082817815777E-010
 Elapsed time in seconds =    39459.2153140728     
 Elapsed time in hh:mm:ss =   10 h 57 m 39 s
 Mean elapsed time per time step in seconds =   0.626336751017028     
 Time steps done =        63000  out of        75300
 Time steps remaining =        12300
 Estimated remaining time in seconds =    7703.94203750945     
 Estimated remaining time in hh:mm:ss =    2 h 08 m 23 s
 Estimated total run time in seconds =    47163.1573515822     
 Estimated total run time in hh:mm:ss =   13 h 06 m 03 s
 We have done    83.66534     % of that
 The run will finish approximately on (in local time): Fri Dec 10, 2021 02:07
 
 
 Total number of receivers saved is           22  out of           22
 
 
 Writing the seismograms by master proc alone took   0.309404095227364      
  seconds
 
 
 Total number of receivers saved is           22  out of           22
 
 
 Writing the seismograms by master proc alone took   0.312310595181771      
  seconds
 
 
 Total number of receivers saved is           22  out of           22
 
 
 Writing the seismograms by master proc alone took   0.310312834393699      
  seconds
 
 
  Total number of time steps written:        63000
 
 Time step #        64000
 Time:    255.3261      minutes
 Max norm displacement vector U in solid in all slices (m) = 
   3.06021599757590     
 Max non-dimensional potential Ufluid in fluid in all slices = 
  2.029570696031208E-010
 Elapsed time in seconds =    40085.2693794247     
 Elapsed time in hh:mm:ss =   11 h 08 m 05 s
 Mean elapsed time per time step in seconds =   0.626332334053512     
 Time steps done =        64000  out of        75300
 Time steps remaining =        11300
 Estimated remaining time in seconds =    7077.55537480468     
 Estimated remaining time in hh:mm:ss =    1 h 57 m 57 s
 Estimated total run time in seconds =    47162.8247542294     
 Estimated total run time in hh:mm:ss =   13 h 06 m 02 s
 We have done    84.99336     % of that
 The run will finish approximately on (in local time): Fri Dec 10, 2021 02:07
 
 
 Total number of receivers saved is           22  out of           22
 
 
 Writing the seismograms by master proc alone took   0.309363132808357      
  seconds
 
 
 Total number of receivers saved is           22  out of           22
 
 
 Writing the seismograms by master proc alone took   0.307650753646158      
  seconds
 
 
 Total number of receivers saved is           22  out of           22
 
 
 Writing the seismograms by master proc alone took   0.307833072030917      
  seconds
 
 
  Total number of time steps written:        64000
 
 Time step #        65000
 Time:    259.3161      minutes
 Max norm displacement vector U in solid in all slices (m) = 
   3.04011804517622     
 Max non-dimensional potential Ufluid in fluid in all slices = 
  2.141969874309849E-010
 Elapsed time in seconds =    40711.5051232552     
 Elapsed time in hh:mm:ss =   11 h 18 m 31 s
 Mean elapsed time per time step in seconds =   0.626330848050080     
 Time steps done =        65000  out of        75300
 Time steps remaining =        10300
 Estimated remaining time in seconds =    6451.20773491582     
 Estimated remaining time in hh:mm:ss =    1 h 47 m 31 s
 Estimated total run time in seconds =    47162.7128581710     
 Estimated total run time in hh:mm:ss =   13 h 06 m 02 s
 We have done    86.32138     % of that
 The run will finish approximately on (in local time): Fri Dec 10, 2021 02:08
 
 
 Total number of receivers saved is           22  out of           22
 
 
 Writing the seismograms by master proc alone took   0.412095963198226      
  seconds
 
 
 Total number of receivers saved is           22  out of           22
 
 
 Writing the seismograms by master proc alone took   0.408612063212786      
  seconds
 
 
 Total number of receivers saved is           22  out of           22
 
 
 Writing the seismograms by master proc alone took   0.408515256771352      
  seconds
 
 
  Total number of time steps written:        65000
 
 Time step #        66000
 Time:    263.3061      minutes
 Max norm displacement vector U in solid in all slices (m) = 
   3.05722117688488     
 Max non-dimensional potential Ufluid in fluid in all slices = 
  2.169127777507688E-010
 Elapsed time in seconds =    41338.2038433776     
 Elapsed time in hh:mm:ss =   11 h 28 m 58 s
 Mean elapsed time per time step in seconds =   0.626336421869357     
 Time steps done =        66000  out of        75300
 Time steps remaining =         9300
 Estimated remaining time in seconds =    5824.92872338502     
 Estimated remaining time in hh:mm:ss =    1 h 37 m 04 s
 Estimated total run time in seconds =    47163.1325667626     
 Estimated total run time in hh:mm:ss =   13 h 06 m 03 s
 We have done    87.64940     % of that
 The run will finish approximately on (in local time): Fri Dec 10, 2021 02:07
 
 
 Total number of receivers saved is           22  out of           22
 
 
 Writing the seismograms by master proc alone took   0.307855484017637      
  seconds
 
 
 Total number of receivers saved is           22  out of           22
 
 
 Writing the seismograms by master proc alone took   0.305549674434587      
  seconds
 
 
 Total number of receivers saved is           22  out of           22
 
 
 Writing the seismograms by master proc alone took   0.305623437627219      
  seconds
 
 
  Total number of time steps written:        66000
 
 Time step #        67000
 Time:    267.2961      minutes
 Max norm displacement vector U in solid in all slices (m) = 
   3.06922166115076     
 Max non-dimensional potential Ufluid in fluid in all slices = 
  2.228182390683437E-010
 Elapsed time in seconds =    41964.2358701856     
 Elapsed time in hh:mm:ss =   11 h 39 m 24 s
 Mean elapsed time per time step in seconds =   0.626331878659487     
 Time steps done =        67000  out of        75300
 Time steps remaining =         8300
 Estimated remaining time in seconds =    5198.55459287374     
 Estimated remaining time in hh:mm:ss =    1 h 26 m 38 s
 Estimated total run time in seconds =    47162.7904630593     
 Estimated total run time in hh:mm:ss =   13 h 06 m 02 s
 We have done    88.97742     % of that
 The run will finish approximately on (in local time): Fri Dec 10, 2021 02:08
 
 
 Total number of receivers saved is           22  out of           22
 
 
 Writing the seismograms by master proc alone took   0.445616422395688      
  seconds
 
 
 Total number of receivers saved is           22  out of           22
 
 
 Writing the seismograms by master proc alone took   0.441993569605984      
  seconds
 
 
 Total number of receivers saved is           22  out of           22
 
 
 Writing the seismograms by master proc alone took   0.442340583191253      
  seconds
 
 
  Total number of time steps written:        67000
 
 Time step #        68000
 Time:    271.2861      minutes
 Max norm displacement vector U in solid in all slices (m) = 
   3.04588956858938     
 Max non-dimensional potential Ufluid in fluid in all slices = 
  2.261258263686604E-010
 Elapsed time in seconds =    42589.0553319240     
 Elapsed time in hh:mm:ss =   11 h 49 m 49 s
 Mean elapsed time per time step in seconds =   0.626309637234176     
 Time steps done =        68000  out of        75300
 Time steps remaining =         7300
 Estimated remaining time in seconds =    4572.06035180949     
 Estimated remaining time in hh:mm:ss =    1 h 16 m 12 s
 Estimated total run time in seconds =    47161.1156837335     
 Estimated total run time in hh:mm:ss =   13 h 06 m 01 s
 We have done    90.30544     % of that
 The run will finish approximately on (in local time): Fri Dec 10, 2021 02:07
 
 
 Total number of receivers saved is           22  out of           22
 
 
 Writing the seismograms by master proc alone took   0.308366662357002      
  seconds
 
 
 Total number of receivers saved is           22  out of           22
 
 
 Writing the seismograms by master proc alone took   0.306297208764590      
  seconds
 
 
 Total number of receivers saved is           22  out of           22
 
 
 Writing the seismograms by master proc alone took   0.305778875190299      
  seconds
 
 
  Total number of time steps written:        68000
 
 Time step #        69000
 Time:    275.2761      minutes
 Max norm displacement vector U in solid in all slices (m) = 
   3.03190242385359     
 Max non-dimensional potential Ufluid in fluid in all slices = 
  2.323847334652601E-010
 Elapsed time in seconds =    43215.5685428016     
 Elapsed time in hh:mm:ss =   12 h 00 m 15 s
 Mean elapsed time per time step in seconds =   0.626312587576835     
 Time steps done =        69000  out of        75300
 Time steps remaining =         6300
 Estimated remaining time in seconds =    3945.76930173406     
 Estimated remaining time in hh:mm:ss =    1 h 05 m 45 s
 Estimated total run time in seconds =    47161.3378445357     
 Estimated total run time in hh:mm:ss =   13 h 06 m 01 s
 We have done    91.63347     % of that
 The run will finish approximately on (in local time): Fri Dec 10, 2021 02:07
 
 
 Total number of receivers saved is           22  out of           22
 
 
 Writing the seismograms by master proc alone took   0.308899476018269      
  seconds
 
 
 Total number of receivers saved is           22  out of           22
 
 
 Writing the seismograms by master proc alone took   0.307222193630878      
  seconds
 
 
 Total number of receivers saved is           22  out of           22
 
 
 Writing the seismograms by master proc alone took   0.307317089580465      
  seconds
 
 
  Total number of time steps written:        69000
 
 Time step #        70000
 Time:    279.2661      minutes
 Max norm displacement vector U in solid in all slices (m) = 
   3.03946159995514     
 Max non-dimensional potential Ufluid in fluid in all slices = 
  2.411987959647281E-010
 Elapsed time in seconds =    43841.2375262984     
 Elapsed time in hh:mm:ss =   12 h 10 m 41 s
 Mean elapsed time per time step in seconds =   0.626303393232834     
 Time steps done =        70000  out of        75300
 Time steps remaining =         5300
 Estimated remaining time in seconds =    3319.40798413402     
 Estimated remaining time in hh:mm:ss =    0 h 55 m 19 s
 Estimated total run time in seconds =    47160.6455104324     
 Estimated total run time in hh:mm:ss =   13 h 06 m 00 s
 We have done    92.96149     % of that
 The run will finish approximately on (in local time): Fri Dec 10, 2021 02:07
 
 
 Total number of receivers saved is           22  out of           22
 
 
 Writing the seismograms by master proc alone took   0.419738652009983      
  seconds
 
 
 Total number of receivers saved is           22  out of           22
 
 
 Writing the seismograms by master proc alone took   0.416121859976556      
  seconds
 
 
 Total number of receivers saved is           22  out of           22
 
 
 Writing the seismograms by master proc alone took   0.416076220048126      
  seconds
 
 
  Total number of time steps written:        70000
 
 Time step #        71000
 Time:    283.2561      minutes
 Max norm displacement vector U in solid in all slices (m) = 
   3.05392472881830     
 Max non-dimensional potential Ufluid in fluid in all slices = 
  2.473694353429389E-010
 Elapsed time in seconds =    44467.8693003112     
 Elapsed time in hh:mm:ss =   12 h 21 m 07 s
 Mean elapsed time per time step in seconds =   0.626308018314242     
 Time steps done =        71000  out of        75300
 Time steps remaining =         4300
 Estimated remaining time in seconds =    2693.12447875124     
 Estimated remaining time in hh:mm:ss =    0 h 44 m 53 s
 Estimated total run time in seconds =    47160.9937790624     
 Estimated total run time in hh:mm:ss =   13 h 06 m 00 s
 We have done    94.28951     % of that
 The run will finish approximately on (in local time): Fri Dec 10, 2021 02:07
 
 
 Total number of receivers saved is           22  out of           22
 
 
 Writing the seismograms by master proc alone took   0.308824934414588      
  seconds
 
 
 Total number of receivers saved is           22  out of           22
 
 
 Writing the seismograms by master proc alone took   0.307405025581829      
  seconds
 
 
 Total number of receivers saved is           22  out of           22
 
 
 Writing the seismograms by master proc alone took   0.306371907237917      
  seconds
 
 
  Total number of time steps written:        71000
 
 Time step #        72000
 Time:    287.2461      minutes
 Max norm displacement vector U in solid in all slices (m) = 
   3.05089591899693     
 Max non-dimensional potential Ufluid in fluid in all slices = 
  2.588197768032153E-010
 Elapsed time in seconds =    45094.3144477976     
 Elapsed time in hh:mm:ss =   12 h 31 m 34 s
 Mean elapsed time per time step in seconds =   0.626309922886078     
 Time steps done =        72000  out of        75300
 Time steps remaining =         3300
 Estimated remaining time in seconds =    2066.82274552406     
 Estimated remaining time in hh:mm:ss =    0 h 34 m 26 s
 Estimated total run time in seconds =    47161.1371933217     
 Estimated total run time in hh:mm:ss =   13 h 06 m 01 s
 We have done    95.61753     % of that
 The run will finish approximately on (in local time): Fri Dec 10, 2021 02:07
 
 
 Total number of receivers saved is           22  out of           22
 
 
 Writing the seismograms by master proc alone took   0.453302904847078      
  seconds
 
 
 Total number of receivers saved is           22  out of           22
 
 
 Writing the seismograms by master proc alone took   0.449682222388219      
  seconds
 
 
 Total number of receivers saved is           22  out of           22
 
 
 Writing the seismograms by master proc alone took   0.449772076040972      
  seconds
 
 
  Total number of time steps written:        72000
 
 Time step #        73000
 Time:    291.2361      minutes
 Max norm displacement vector U in solid in all slices (m) = 
   3.06229639293954     
 Max non-dimensional potential Ufluid in fluid in all slices = 
  2.653175052398316E-010
 Elapsed time in seconds =    45720.9825606896     
 Elapsed time in hh:mm:ss =   12 h 42 m 00 s
 Mean elapsed time per time step in seconds =   0.626314829598487     
 Time steps done =        73000  out of        75300
 Time steps remaining =         2300
 Estimated remaining time in seconds =    1440.52410807652     
 Estimated remaining time in hh:mm:ss =    0 h 24 m 00 s
 Estimated total run time in seconds =    47161.5066687661     
 Estimated total run time in hh:mm:ss =   13 h 06 m 01 s
 We have done    96.94555     % of that
 The run will finish approximately on (in local time): Fri Dec 10, 2021 02:07
 
 
 Total number of receivers saved is           22  out of           22
 
 
 Writing the seismograms by master proc alone took   0.308757821621839      
  seconds
 
 
 Total number of receivers saved is           22  out of           22
 
 
 Writing the seismograms by master proc alone took   0.307711604807992      
  seconds
 
 
 Total number of receivers saved is           22  out of           22
 
 
 Writing the seismograms by master proc alone took   0.307903521577828      
  seconds
 
 
  Total number of time steps written:        73000
 
 Time step #        74000
 Time:    295.2261      minutes
 Max norm displacement vector U in solid in all slices (m) = 
   3.03813176241117     
 Max non-dimensional potential Ufluid in fluid in all slices = 
  2.700416464487440E-010
 Elapsed time in seconds =    46346.1624095568     
 Elapsed time in hh:mm:ss =   12 h 52 m 26 s
 Mean elapsed time per time step in seconds =   0.626299492021038     
 Time steps done =        74000  out of        75300
 Time steps remaining =         1300
 Estimated remaining time in seconds =    814.189339627349     
 Estimated remaining time in hh:mm:ss =    0 h 13 m 34 s
 Estimated total run time in seconds =    47160.3517491841     
 Estimated total run time in hh:mm:ss =   13 h 06 m 00 s
 We have done    98.27357     % of that
 The run will finish approximately on (in local time): Fri Dec 10, 2021 02:08
 
 
 Total number of receivers saved is           22  out of           22
 
 
 Writing the seismograms by master proc alone took   0.309976260759868      
  seconds
 
 
 Total number of receivers saved is           22  out of           22
 
 
 Writing the seismograms by master proc alone took   0.308574815979227      
  seconds
 
 
 Total number of receivers saved is           22  out of           22
 
 
 Writing the seismograms by master proc alone took   0.309114346397109      
  seconds
 
 
  Total number of time steps written:        74000
 
 Time step #        75000
 Time:    299.2161      minutes
 Max norm displacement vector U in solid in all slices (m) = 
   3.03730987181596     
 Max non-dimensional potential Ufluid in fluid in all slices = 
  2.790606610812037E-010
 Elapsed time in seconds =    46973.3882983568     
 Elapsed time in hh:mm:ss =   13 h 02 m 53 s
 Mean elapsed time per time step in seconds =   0.626311843978090     
 Time steps done =        75000  out of        75300
 Time steps remaining =          300
 Estimated remaining time in seconds =    187.893553193427     
 Estimated remaining time in hh:mm:ss =    0 h 03 m 07 s
 Estimated total run time in seconds =    47161.2818515502     
 Estimated total run time in hh:mm:ss =   13 h 06 m 01 s
 We have done    99.60159     % of that
 The run will finish approximately on (in local time): Fri Dec 10, 2021 02:07
 
 
 Total number of receivers saved is           22  out of           22
 
 
 Writing the seismograms by master proc alone took   0.427846936800051      
  seconds
 
 
 Total number of receivers saved is           22  out of           22
 
 
 Writing the seismograms by master proc alone took   0.421659993648063      
  seconds
 
 
 Total number of receivers saved is           22  out of           22
 
 
 Writing the seismograms by master proc alone took   0.422436842403840      
  seconds
 
 
  Total number of time steps written:        75000
 
 Time step #        75300
 Time:    300.4131      minutes
 Max norm displacement vector U in solid in all slices (m) = 
   3.05486723490383     
 Max non-dimensional potential Ufluid in fluid in all slices = 
  2.797882034436456E-010
 Elapsed time in seconds =    47162.7657026000     
 Elapsed time in hh:mm:ss =   13 h 06 m 02 s
 Mean elapsed time per time step in seconds =   0.626331549835325     
 Time steps done =        75300  out of        75300
 Time steps remaining =            0
 Estimated remaining time in seconds =   0.000000000000000E+000
 Estimated remaining time in hh:mm:ss =    0 h 00 m 00 s
 Estimated total run time in seconds =    47162.7657026000     
 Estimated total run time in hh:mm:ss =   13 h 06 m 02 s
 We have done    100.0000     % of that
 
 
 Total number of receivers saved is           22  out of           22
 
 
 Writing the seismograms by master proc alone took   9.787282720208168E-002 
  seconds
 
 
 Total number of receivers saved is           22  out of           22
 
 
 Writing the seismograms by master proc alone took   9.623671683948487E-002 
  seconds
 
 
 Total number of receivers saved is           22  out of           22
 
 
 Writing the seismograms by master proc alone took   9.673640882829204E-002 
  seconds
 
 
  Total number of time steps written:        75300
 
 Time-Loop Complete. Timing info:
 Total elapsed time in seconds =    47163.6774840992     
 Total elapsed time in hh:mm:ss =   13 h 06 m 03 s
 
 End of the simulation
 
